geometry optimzed in LAMMPS
_audit_creation_date              2020-11-30 
_audit_creation_method            'lammps2cif' 
_symmetry_space_group_name_H-M    'P1' 
_symmetry_Int_Tables_number       1 
_symmetry_cell_setting            triclinic 
loop_ 
_symmetry_equiv_pos_as_xyz 
  x,y,z 
_cell_length_a                    52.30534311 
_cell_length_b                    53.35449571987051 
_cell_length_c                    52.97339712115389 
_cell_angle_alpha                 90.67096449836633 
_cell_angle_beta                  90.50374543746844 
_cell_angle_gamma                 89.16537348847041 
loop_ 
_atom_site_label 
_atom_site_type_symbol 
_atom_site_fract_x 
_atom_site_fract_y 
_atom_site_fract_z 
_atom_site_charge 
O1          O  0.54855822  0.97365466  0.47435044    -0.78600
O2          O  0.44629424  0.00190184  0.51851648    -0.78600
O3          O  0.51601936  0.96085817  0.52554564    -0.78600
O4          O  0.48056767  0.95801241  0.45070097    -0.78600
O5          O  0.48207753  0.97704378  0.53924010    -0.78700
O6          O  0.51377955  0.97691501  0.43431599    -0.78600
O7          O  0.44913882  0.97008152  0.49234442    -0.78600
O8          O  0.55467660  0.98952259  0.51252998    -0.78700
C9          C  0.56304840  0.97747046  0.49323998     1.11100
C10         C  0.43695590  0.98193748  0.50945800     1.11000
C11         C  0.49799051  0.95925755  0.54037922     1.11100
C12         C  0.49622535  0.96052107  0.43274774     1.11000
O13         O  0.50738022  0.02982277  0.44720244    -0.78600
O14         O  0.48257418  0.02471493  0.55218346    -0.78700
O15         O  0.52333805  0.03346663  0.51492141    -0.78600
O16         O  0.44831424  0.02122845  0.47500099    -0.78600
O17         O  0.47482218  0.04144004  0.50092090    -0.78700
O18         O  0.54643584  0.02680488  0.48136148    -0.78600
O19         O  0.47550463  0.00776903  0.43311080    -0.78600
O20         O  0.52051702  0.00521383  0.55691759    -0.78700
Co21       Co  0.52699440  0.00140114  0.46103287     1.51500
Co22       Co  0.48350491  0.00931135  0.51839086     1.51700
Co23       Co  0.51715406  0.99710639  0.51951822     1.51600
Co24       Co  0.46547582  0.98921319  0.46468579     1.51500
O25         O  0.49842945  0.99383217  0.48574166    -1.40500
C26         C  0.49152978  0.02506306  0.42996458     1.11000
C27         C  0.50172572  0.01841486  0.56640754     1.11100
C28         C  0.54247099  0.03882118  0.50169833     1.11000
C29         C  0.45481843  0.04102305  0.48685397     1.11000
O30         O  0.03964674  0.54172886  0.48761623    -0.78600
O31         O  0.03608395  0.46842981  0.51582416    -0.78600
O32         O  0.03233120  0.52228180  0.55247725    -0.78600
O33         O  0.02971445  0.49906158  0.45604291    -0.78600
O34         O  0.01518574  0.48525659  0.55907777    -0.78700
O35         O  0.01519462  0.53623468  0.44292512    -0.78600
O36         O  0.02681886  0.45679882  0.47839286    -0.78600
O37         O  0.02619653  0.56287261  0.52049784    -0.78700
C38         C  0.04071800  0.56106606  0.50159036     1.11100
C39         C  0.03919897  0.45260309  0.49801989     1.11000
C40         C  0.03022268  0.50277149  0.56563931     1.11100
C41         C  0.02864078  0.51627788  0.43918504     1.11000
O42         O  0.96976510  0.52296580  0.46328011    -0.78600
O43         O  0.96555167  0.48807831  0.53783910    -0.78700
O44         O  0.97271262  0.55726174  0.52178598    -0.78600
O45         O  0.98048950  0.45771866  0.49119207    -0.78600
O46         O  0.99282168  0.44499710  0.52939002    -0.78700
O47         O  0.98989315  0.56514193  0.48454337    -0.78600
O48         O  0.98107154  0.48587859  0.45185115    -0.78600
O49         O  0.97844089  0.52110053  0.55942850    -0.78700
Co50       Co  0.00505472  0.53052331  0.47702292     1.51500
Co51       Co  0.00008735  0.47969088  0.52460585     1.51700
Co52       Co  0.00238754  0.53918079  0.53691773     1.51600
Co53       Co  0.00384526  0.48597576  0.48075944     1.51500
O54         O  0.00149617  0.51308681  0.50917439    -1.40500
C55         C  0.96756258  0.50477839  0.44783065     1.11000
C56         C  0.96425430  0.50206763  0.55736518     1.11100
C57         C  0.97498376  0.57133303  0.50274046     1.11000
C58         C  0.98129843  0.44080228  0.50842284     1.11000
O59         O  0.47292103  0.48714427  0.97338299    -0.78600
O60         O  0.54489893  0.49007088  0.96947764    -0.78600
O61         O  0.50992424  0.52421054  0.96772289    -0.78600
O62         O  0.51299655  0.44592372  0.97825320    -0.78600
O63         O  0.54850965  0.53946282  0.97640086    -0.78700
O64         O  0.47351060  0.43797759  0.99064192    -0.78600
O65         O  0.56224808  0.45854908  0.98740058    -0.78600
O66         O  0.45738971  0.52557362  0.97873449    -0.78700
C67         C  0.45381157  0.50293705  0.97135317     1.11100
C68         C  0.56393883  0.47513571  0.97127726     1.11000
C69         C  0.52670859  0.54176360  0.96534117     1.11100
C70         C  0.49352151  0.43139565  0.97844465     1.11000
O71         O  0.49118889  0.44909909  0.03759784    -0.78600
O72         O  0.53235953  0.54043917  0.02455297    -0.78700
O73         O  0.46417643  0.51613082  0.02824325    -0.78600
O74         O  0.55853406  0.47039059  0.03256725    -0.78600
O75         O  0.56999192  0.50613617  0.01555721    -0.78700
O76         O  0.45206450  0.47794541  0.02142205    -0.78600
O77         O  0.52727349  0.43255211  0.02666888    -0.78600
O78         O  0.49463975  0.55201956  0.01109682    -0.78700
Co79       Co  0.48536622  0.46862262  0.00550544     1.51500
Co80       Co  0.53648816  0.51442423  0.99801849     1.51700
Co81       Co  0.48717992  0.51729059  0.99854427     1.51600
Co82       Co  0.53166182  0.46252106  0.00776082     1.51500
O83         O  0.51176412  0.49428792  0.01625333    -1.40500
C84         C  0.50753719  0.43141099  0.03948522     1.11000
C85         C  0.51504850  0.55711788  0.02305394     1.11100
C86         C  0.44769004  0.49936432  0.03098206     1.11000
C87         C  0.57475410  0.48765331  0.03009742     1.11000
C88         C  0.55215055  0.92671550  0.75561055     0.81700
N89         N  0.53824949  0.92656449  0.73375980    -0.76600
C90         C  0.54379210  0.90966036  0.71487077     0.84200
N91         N  0.56321640  0.89272964  0.71862343    -0.76500
C92         C  0.57720214  0.89258458  0.74041574     0.84300
N93         N  0.57161103  0.90987413  0.75871787    -0.78200
C94         C  0.73785955  0.72472019  0.77823744     0.81700
N95         N  0.75647835  0.72602760  0.76038266    -0.76600
C96         C  0.75692295  0.74507874  0.74363211     0.84200
N97         N  0.73837920  0.76313094  0.74486921    -0.76500
C98         C  0.71953540  0.76243485  0.76239066     0.84300
N99         N  0.71938428  0.74309626  0.77894089    -0.78200
C100        C  0.91338360  0.73704874  0.57151166     0.81700
N101        N  0.89576502  0.73530686  0.59015406    -0.76600
C102        C  0.88839830  0.75575848  0.60394141     0.84200
N103        N  0.89914689  0.77816163  0.59895113    -0.76500
C104        C  0.91687176  0.78046880  0.58053180     0.84300
N105        N  0.92383928  0.75976252  0.56668816    -0.78200
C106        C  0.77479055  0.56166541  0.93641035     0.81700
N107        N  0.75448901  0.54672523  0.94111363    -0.76600
C108        C  0.73194273  0.55018429  0.92844888     0.84200
N109        N  0.72973726  0.56906201  0.91150866    -0.76500
C110        C  0.74959952  0.58441994  0.90684279     0.84300
N111        N  0.77217674  0.58035652  0.91924579    -0.78200
C112        C  0.27857858  0.22568820  0.75076065     0.81700
N113        N  0.26110562  0.22718119  0.73143379    -0.76600
C114        C  0.24341549  0.24632064  0.73070834     0.84200
N115        N  0.24359382  0.26390141  0.74950846    -0.76500
C116        C  0.26065051  0.26257421  0.76885602     0.84300
N117        N  0.27789805  0.24342499  0.76937030    -0.78200
C118        C  0.28158247  0.42404434  0.93395335     0.81700
N119        N  0.25980635  0.42745170  0.94780900    -0.76600
C120        C  0.23841485  0.41406083  0.94199273     0.84200
N121        N  0.23909064  0.39724117  0.92256209    -0.76500
C122        C  0.26060133  0.39327212  0.90886152     0.84300
N123        N  0.28165691  0.40690695  0.91466468    -0.78200
C124        C  0.43180298  0.05365841  0.78482981     0.81700
N125        N  0.41649310  0.07435175  0.78359521    -0.76600
C126        C  0.41243516  0.08637362  0.76147391     0.84200
N127        N  0.42418633  0.07737309  0.74038460    -0.76500
C128        C  0.43991023  0.05683060  0.74125418     0.84300
N129        N  0.44356770  0.04478406  0.76359151    -0.78200
C130        C  0.07262570  0.23867476  0.57068789     0.81700
N131        N  0.09030008  0.23845758  0.58969994    -0.76600
C132        C  0.10467026  0.25889266  0.59509291     0.84200
N133        N  0.10107930  0.27988485  0.58108116    -0.76500
C134        C  0.08349797  0.28068516  0.56194874     0.84300
N135        N  0.06934636  0.25990309  0.55682360    -0.78200
O136        O  0.46431083  0.99840474  0.96924467    -0.78600
O137        O  0.46951162  0.98062140  0.02121758    -0.78600
O138        O  0.50069447  0.93249126  0.98114026    -0.78600
O139        O  0.50138236  0.04787420  0.01326392    -0.78600
O140        O  0.48653592  0.93084577  0.02072061    -0.78700
O141        O  0.47578246  0.04385697  0.98067696    -0.78600
O142        O  0.49177789  0.00791828  0.04384457    -0.78600
O143        O  0.48418992  0.96934442  0.94750826    -0.78700
C144        C  0.46425862  0.98282292  0.95138018     1.11100
C145        C  0.47169705  0.99466149  0.04063626     1.11000
C146        C  0.48994335  0.92032476  0.99924001     1.11100
C147        C  0.48415046  0.05679734  0.99873672     1.11000
O148        O  0.52527157  0.03987261  0.96914908    -0.78600
O149        O  0.53478978  0.94273576  0.01254949    -0.78700
O150        O  0.53564726  0.98851005  0.94376728    -0.78600
O151        O  0.54466730  0.99102422  0.03716381    -0.78600
O152        O  0.51417383  0.96687623  0.04942159    -0.78700
O153        O  0.50288234  0.01174961  0.93393236    -0.78600
O154        O  0.55062025  0.03012258  0.00164787    -0.78600
O155        O  0.55239007  0.95294141  0.97731975    -0.78700
Co156      Co  0.49695881  0.01505624  0.97105428     1.51500
Co157      Co  0.50136078  0.96222804  0.01356121     1.51700
Co158      Co  0.51832500  0.96350611  0.96508429     1.51600
Co159      Co  0.52212553  0.01689678  0.02201386     1.51500
O160        O  0.51362145  0.99087664  0.99427511    -1.40500
C161        C  0.54550149  0.04346507  0.98231852     1.11000
C162        C  0.55286546  0.94025905  0.99710803     1.11100
C163        C  0.52256664  0.99963772  0.92692147     1.11000
C164        C  0.53456768  0.97860252  0.05455699     1.11000
C165        C  0.28062694  0.74789675  0.76980990     0.81700
N166        N  0.26255048  0.72997924  0.76840691    -0.76600
C167        C  0.24292855  0.73166415  0.75161746     0.84200
N168        N  0.24132456  0.75165244  0.73600731    -0.76500
C169        C  0.25934896  0.76978322  0.73699635     0.84300
N170        N  0.27889452  0.76771493  0.75397885    -0.78200
C171        C  0.44981185  0.70847627  0.92373391     0.81700
N172        N  0.45459908  0.72804253  0.93967992    -0.76600
C173        C  0.44168114  0.75016650  0.93720301     0.84200
N174        N  0.42383219  0.75254140  0.91856835    -0.76500
C175        C  0.41897341  0.73318953  0.90244639     0.84300
N176        N  0.43207402  0.71123567  0.90509372    -0.78200
C177        C  0.22381848  0.94612798  0.59413241     0.81700
N178        N  0.22554085  0.92852012  0.61244817    -0.76600
C179        C  0.24736577  0.91476663  0.61574591     0.84200
N180        N  0.26757444  0.91898622  0.60054421    -0.76500
C181        C  0.26637656  0.93650116  0.58219936     0.84300
N182        N  0.24431867  0.95001426  0.57899544    -0.78200
C183        C  0.07735976  0.57785710  0.77585979     0.81700
N184        N  0.09678481  0.59434275  0.77457921    -0.76600
C185        C  0.10993172  0.59755564  0.75302002     0.84200
N186        N  0.10333303  0.58413171  0.73219137    -0.76500
C187        C  0.08405647  0.56740367  0.73293812     0.84300
N188        N  0.07111254  0.56416745  0.75484992    -0.78200
C189        C  0.76120002  0.25075590  0.22485925     0.81700
N190        N  0.74311246  0.23275327  0.22592736    -0.76600
C191        C  0.74240381  0.21667857  0.24567472     0.84200
N192        N  0.76004796  0.21877826  0.26461545    -0.76500
C193        C  0.77820846  0.23673860  0.26382405     0.84300
N194        N  0.77856637  0.25249448  0.24393567    -0.78200
C195        C  0.93803247  0.27526601  0.42954650     0.81700
N196        N  0.95263457  0.25452338  0.43434904    -0.76600
C197        C  0.94843993  0.23275557  0.42151099     0.84200
N198        N  0.92948061  0.23189664  0.40388211    -0.76500
C199        C  0.91465671  0.25237560  0.39888267     0.84300
N200        N  0.91904914  0.27402283  0.41187071    -0.78200
C201        C  0.78673641  0.39984867  0.05333709     0.81700
N202        N  0.76633945  0.41586135  0.05135685    -0.76600
C203        C  0.74575304  0.41347244  0.06656604     0.84200
N204        N  0.74576851  0.39494281  0.08389840    -0.76500
C205        C  0.76590152  0.37872645  0.08609979     0.84300
N206        N  0.78634882  0.38124692  0.07068623    -0.78200
C207        C  0.57550181  0.06063937  0.26643792     0.81700
N208        N  0.56936437  0.04788176  0.24489936    -0.76600
C209        C  0.58241806  0.05186500  0.22325321     0.84200
N210        N  0.60153776  0.06892180  0.22324747    -0.76500
C211        C  0.60801211  0.08166273  0.24473229     0.84300
N212        N  0.59484037  0.07732768  0.26620082    -0.78200
O213        O  0.96630183  0.52292600  0.99560818    -0.78600
O214        O  0.04038185  0.52005823  0.00919212    -0.78600
O215        O  0.99371916  0.50730739  0.04498289    -0.78600
O216        O  0.02830594  0.49525397  0.94146659    -0.78600
O217        O  0.03346561  0.50227666  0.05823731    -0.78700
O218        O  0.00255049  0.52464422  0.95707275    -0.78600
O219        O  0.05985933  0.49532593  0.98126611    -0.78600
O220        O  0.95085302  0.49399480  0.01894757    -0.78700
C221        C  0.94769387  0.51471839  0.00786833     1.11100
C222        C  0.05917394  0.51542585  0.99463688     1.11000
C223        C  0.01088970  0.51042659  0.06245178     1.11100
C224        C  0.01934988  0.51752375  0.94126591     1.11000
O225        O  0.98469204  0.47751712  0.93879329    -0.78600
O226        O  0.01377740  0.45807840  0.04316706    -0.78700
O227        O  0.97189390  0.44740026  0.00274107    -0.78600
O228        O  0.04338717  0.44528630  0.99441335    -0.78600
O229        O  0.05834050  0.47171705  0.02194806    -0.78700
O230        O  0.95156059  0.47309174  0.97670772    -0.78600
O231        O  0.00930178  0.44666854  0.95274147    -0.78600
O232        O  0.97321917  0.46225128  0.05324945    -0.78700
Co233      Co  0.97803960  0.49940040  0.96883150     1.51500
Co234      Co  0.02465695  0.49060347  0.02481587     1.51700
Co235      Co  0.98485224  0.47605363  0.02241704     1.51600
Co236      Co  0.03337872  0.47065326  0.96913867     1.51500
O237        O  0.00550422  0.48464083  0.99195661    -1.40500
C238        C  0.99355175  0.45534469  0.93652025     1.11000
C239        C  0.99558398  0.45468229  0.05904265     1.11100
C240        C  0.95298212  0.45217201  0.98831005     1.11000
C241        C  0.06168832  0.45206638  0.00855027     1.11000
C242        C  0.23320442  0.08368059  0.44523378     0.81700
N243        N  0.23172853  0.10182994  0.42730213    -0.76600
C244        C  0.25234053  0.11581283  0.42146321     0.84200
N245        N  0.27469823  0.11149078  0.43380680    -0.76500
C246        C  0.27707774  0.09359538  0.45170470     0.84300
N247        N  0.25622169  0.07940259  0.45726393    -0.78200
C248        C  0.25208391  0.23618122  0.27434550     0.81700
N249        N  0.23490951  0.25549387  0.27342409    -0.76600
C250        C  0.23470962  0.27185492  0.25400378     0.84200
N251        N  0.25193077  0.26875483  0.23512742    -0.76500
C252        C  0.26921479  0.24943141  0.23547243     0.84300
N253        N  0.26923597  0.23329738  0.25526827    -0.78200
C254        C  0.08040002  0.44563234  0.27246326     0.81700
N255        N  0.06497353  0.44736892  0.25166430    -0.76600
C256        C  0.06892957  0.43195075  0.23140784     0.84200
N257        N  0.08834075  0.41486059  0.23212123    -0.76500
C258        C  0.10391416  0.41292645  0.25259583     0.84300
N259        N  0.09985246  0.42838594  0.27274324    -0.78200
C260        C  0.43778992  0.26588547  0.07983216     0.81700
N261        N  0.41888616  0.26528411  0.09720027    -0.76600
C262        C  0.40500513  0.24430339  0.10041288     0.84200
N263        N  0.41037167  0.22367471  0.08598258    -0.76500
C264        C  0.42930259  0.22387344  0.06845609     0.84300
N265        N  0.44284124  0.24517545  0.06552245    -0.78200
C266        C  0.76152776  0.26209563  0.74830919     0.81700
N267        N  0.74318005  0.26299500  0.76631437    -0.76600
C268        C  0.72640736  0.24395950  0.76878542     0.84200
N269        N  0.72817751  0.22380706  0.75286257    -0.76500
C270        C  0.74644410  0.22252118  0.73471495     0.84300
N271        N  0.76296987  0.24179436  0.73263924    -0.78200
C272        C  0.91992869  0.42662960  0.72362520     0.81700
N273        N  0.93630955  0.42798891  0.74381062    -0.76600
C274        C  0.93351715  0.41251753  0.76393873     0.84200
N275        N  0.91409571  0.39586953  0.76368280    -0.76500
C276        C  0.89763042  0.39427184  0.74381159     0.84300
N277        N  0.90080374  0.40968676  0.72394744    -0.78200
C278        C  0.57611212  0.22097007  0.93968676     0.81700
N279        N  0.55970315  0.24051385  0.94466515    -0.76600
C280        C  0.56114754  0.26211713  0.93118161     0.84200
N281        N  0.57881913  0.26382500  0.91261344    -0.76500
C282        C  0.59528083  0.24456208  0.90769379     0.84300
N283        N  0.59386300  0.22331172  0.92134274    -0.78200
C284        C  0.71982267  0.07069292  0.56459975     0.81700
N285        N  0.72201396  0.08725108  0.58415652    -0.76600
C286        C  0.74406701  0.08932306  0.59761944     0.84200
N287        N  0.76430037  0.07446382  0.59130523    -0.76500
C288        C  0.76291933  0.05771635  0.57180839     0.84300
N289        N  0.74048757  0.05582153  0.55832039    -0.78200
C290        C  0.75169445  0.76288667  0.27476336     0.81700
N291        N  0.76859824  0.74322156  0.27489892    -0.76600
C292        C  0.76806326  0.72546622  0.25624446     0.84200
N293        N  0.75025902  0.72755588  0.23756410    -0.76500
C294        C  0.73313487  0.74691590  0.23712568     0.84300
N295        N  0.73408247  0.76462003  0.25575993    -0.78200
C296        C  0.73772189  0.93807836  0.42387638     0.81700
N297        N  0.73799527  0.91635601  0.41031117    -0.76600
C298        C  0.75982295  0.90684816  0.40014934     0.84200
N299        N  0.78198173  0.91951572  0.40383285    -0.76500
C300        C  0.78229255  0.94146430  0.41730680     0.84300
N301        N  0.76002339  0.95068272  0.42735127    -0.78200
C302        C  0.93679214  0.56510764  0.23065641     0.81700
N303        N  0.91780150  0.58292985  0.23019168    -0.76600
C304        C  0.90304319  0.58744114  0.25088300     0.84200
N305        N  0.90749560  0.57404401  0.27211633    -0.76500
C306        C  0.92655509  0.55658757  0.27306747     0.84300
N307        N  0.94120916  0.55214788  0.25234779    -0.78200
C308        C  0.59627366  0.76966380  0.04970440     0.81700
N309        N  0.61114267  0.77036496  0.07085772    -0.76600
C310        C  0.61222290  0.75088638  0.08700571     0.84200
N311        N  0.59812813  0.73034523  0.08173340    -0.76500
C312        C  0.58293753  0.72902601  0.06083032     0.84300
N313        N  0.58197336  0.74888688  0.04472231    -0.78200
C314        C  0.22665740  0.75907442  0.25039734     0.81700
N315        N  0.24338426  0.77826886  0.24943776    -0.76600
C316        C  0.25940618  0.78046149  0.22958052     0.84200
N317        N  0.25865080  0.76299859  0.21074926    -0.76500
C318        C  0.24220496  0.74355778  0.21138404     0.84300
N319        N  0.22615555  0.74181441  0.23132152    -0.78200
C320        C  0.43589563  0.92389440  0.25463225     0.81700
N321        N  0.41479950  0.90935247  0.25353510    -0.76600
C322        C  0.40052163  0.90709562  0.23218516     0.84200
N323        N  0.40754046  0.91986221  0.21147377    -0.76500
C324        C  0.42849533  0.93452399  0.21184171     0.84300
N325        N  0.44281746  0.93662926  0.23349720    -0.78200
C326        C  0.07448965  0.77175046  0.42259487     0.81700
N327        N  0.09097383  0.77175148  0.40298341    -0.76600
C328        C  0.10421707  0.75075890  0.39616275     0.84200
N329        N  0.10049252  0.72936581  0.40916465    -0.76500
C330        C  0.08397242  0.72872680  0.42883501     0.84300
N331        N  0.07104630  0.75017841  0.43568177    -0.78200
C332        C  0.27183963  0.56894147  0.06385355     0.81700
N333        N  0.27059006  0.58945518  0.07921390    -0.76600
C334        C  0.24915401  0.60402014  0.08052321     0.84200
N335        N  0.22863095  0.59775549  0.06606277    -0.76500
C336        C  0.22931740  0.57732593  0.05050782     0.84300
N337        N  0.25103043  0.56287318  0.04947862    -0.78200
O338        O  0.97856602  0.94960091  0.50941821    -0.78600
O339        O  0.01003725  0.05210296  0.52823259    -0.78600
O340        O  0.03459413  0.00289501  0.54815987    -0.78600
O341        O  0.96141959  0.01878760  0.53271005    -0.78600
O342        O  0.05475585  0.02800253  0.52373170    -0.78700
O343        O  0.94678237  0.99008964  0.50591839    -0.78600
O344        O  0.97304900  0.06713790  0.51552022    -0.78600
O345        O  0.00028356  0.96333686  0.54259689    -0.78700
C346        C  0.98428533  0.94837047  0.53267819     1.11100
C347        C  0.99423716  0.07079575  0.52687638     1.11000
C348        C  0.05392170  0.01618321  0.54432669     1.11100
C349        C  0.94338242  0.00461354  0.52506232     1.11000
O350        O  0.97103124  0.00304305  0.45862495    -0.78600
O351        O  0.04547295  0.01233224  0.47295137    -0.78700
O352        O  0.02656466  0.94791257  0.49779429    -0.78600
O353        O  0.99991165  0.05016698  0.47520557    -0.78600
O354        O  0.03832018  0.06201154  0.48726191    -0.78700
O355        O  0.00469963  0.96180489  0.46466124    -0.78600
O356        O  0.95276994  0.03102479  0.48240638    -0.78600
O357        O  0.06040644  0.98652104  0.50183083    -0.78700
Co358      Co  0.97724541  0.97785280  0.48520339     1.51500
Co359      Co  0.02541445  0.03079880  0.49888404     1.51700
Co360      Co  0.02857479  0.97691817  0.52192847     1.51600
Co361      Co  0.98306123  0.03322158  0.50598916     1.51500
O362        O  0.00322444  0.00019861  0.50341398    -1.40500
C363        C  0.95189504  0.01716450  0.46287334     1.18200
C364        C  0.06398307  0.99952014  0.48197901     1.11100
C365        C  0.01958916  0.94573827  0.47485412     1.11000
C366        C  0.01805010  0.06630001  0.47451750     1.11000
C367        C  0.05846636  0.88848918  0.45616105     0.14200
C368        C  0.03935235  0.87217828  0.44744578     0.01200
C369        C  0.01414356  0.88142839  0.44482713     0.16100
C370        C  0.00798845  0.90625796  0.45180487     0.25500
C371        C  0.02694895  0.92221966  0.46154745    -0.40800
C372        C  0.05229002  0.91318468  0.46332546     0.32600
C373        C  0.04576072  0.84544484  0.44168007     0.01200
F374        F  0.99522697  0.86598051  0.43689764    -0.13100
F375        F  0.07094363  0.92810839  0.47283987    -0.13600
C376        C  0.05564651  0.82963185  0.46063491     0.16100
C377        C  0.06342552  0.80494411  0.45483546     0.25500
C378        C  0.06181354  0.79577346  0.42990307    -0.40700
C379        C  0.05118945  0.81136218  0.41112992     0.32500
C380        C  0.04303507  0.83586690  0.41700856     0.14200
F381        F  0.05827526  0.83831923  0.48469569    -0.13100
F382        F  0.04924559  0.80300426  0.38688593    -0.13600
F383        F  0.07407920  0.79059147  0.47323891    -0.15900
F384        F  0.03359446  0.85065968  0.39833578    -0.14400
F385        F  0.08309744  0.88031615  0.45817461    -0.14500
F386        F  0.98315998  0.91402695  0.45104522    -0.15900
C387        C  0.26139481  0.70617412  0.15258442     0.14200
C388        C  0.24366908  0.68672613  0.15246797     0.01200
C389        C  0.22505632  0.68619745  0.17136473     0.16100
C390        C  0.22435049  0.70466356  0.19033699     0.25500
C391        C  0.24233826  0.72418303  0.19079826    -0.40800
C392        C  0.26080564  0.72466473  0.17145842     0.32600
C393        C  0.24530678  0.66638883  0.13327845     0.01200
F394        F  0.20796602  0.66729902  0.17187956    -0.13100
F395        F  0.27869695  0.74277396  0.17074183    -0.13600
C396        C  0.26757154  0.65154195  0.13147378     0.16100
C397        C  0.26900776  0.63168400  0.11412119     0.25500
C398        C  0.24802247  0.62604619  0.09814150    -0.40700
C399        C  0.22584278  0.64145744  0.09971256     0.32500
C400        C  0.22458042  0.66139319  0.11709271     0.14200
F401        F  0.28781284  0.65586264  0.14707840    -0.13100
F402        F  0.20520039  0.63734176  0.08459702    -0.13600
F403        F  0.29098964  0.61787129  0.11340808    -0.15900
F404        F  0.20311056  0.67598632  0.11801586    -0.14400
F405        F  0.27938347  0.70727879  0.13430780    -0.14500
F406        F  0.20612633  0.70311210  0.20831211    -0.15900
C407        C  0.15044039  0.72993624  0.34447261     0.14200
C408        C  0.15801964  0.75300079  0.33483592     0.01200
C409        C  0.14824846  0.77528473  0.34543510     0.16100
C410        C  0.13083022  0.77460287  0.36527013     0.25500
C411        C  0.12287813  0.75145595  0.37505815    -0.40800
C412        C  0.13312430  0.72909528  0.36443668     0.32600
C413        C  0.17581558  0.75389865  0.31339341     0.01200
F414        F  0.15534995  0.79778583  0.33627779    -0.13100
F415        F  0.12625022  0.70631718  0.37304008    -0.13600
C416        C  0.16751318  0.74703642  0.28905262     0.16100
C417        C  0.18409910  0.74849655  0.26856058     0.25500
C418        C  0.20925706  0.75697132  0.27211743    -0.40700
C419        C  0.21753578  0.76373205  0.29661193     0.32500
C420        C  0.20092510  0.76218039  0.31707438     0.14200
F421        F  0.14309562  0.73954032  0.28508085    -0.13100
F422        F  0.24187913  0.77133221  0.30085261    -0.13600
F423        F  0.17525244  0.74248987  0.24512148    -0.15900
F424        F  0.20938031  0.76855313  0.34056036    -0.14400
F425        F  0.15999113  0.70818404  0.33459641    -0.14500
F426        F  0.12202898  0.79674744  0.37492363    -0.15900
C427        C  0.31732884  0.81872726  0.21234581     0.14200
C428        C  0.31477826  0.83958048  0.22850405     0.01200
C429        C  0.29347638  0.84156555  0.24436987     0.16100
C430        C  0.27521870  0.82264911  0.24447399     0.25500
C431        C  0.27803045  0.80125987  0.22872181    -0.40800
C432        C  0.29924559  0.79976419  0.21243820     0.32600
C433        C  0.33530510  0.85830485  0.22982840     0.01200
F434        F  0.29040264  0.86185452  0.25982091    -0.13100
F435        F  0.30325084  0.77953233  0.19717784    -0.13600
C436        C  0.34219188  0.87160776  0.20830525     0.16100
C437        C  0.36312087  0.88762284  0.20904034     0.25500
C438        C  0.37763928  0.89072136  0.23148267    -0.40700
C439        C  0.37016054  0.87759879  0.25318580     0.32500
C440        C  0.34928363  0.86158803  0.25228201     0.14200
F441        F  0.32868678  0.86893124  0.18645004    -0.13100
F442        F  0.38316585  0.87976578  0.27535575    -0.13600
F443        F  0.36922139  0.89972209  0.18755793    -0.15900
F444        F  0.34328008  0.84849939  0.27319927    -0.14400
F445        F  0.33801336  0.81619240  0.19715658    -0.14500
F446        F  0.25482859  0.82541348  0.25999630    -0.15900
C447        C  0.85296150  0.95413716  0.42913186     0.14200
C448        C  0.85396121  0.98046811  0.42795498     0.01200
C449        C  0.83110230  0.99391878  0.42295448     0.16100
C450        C  0.80780021  0.98135802  0.41969596     0.25500
C451        C  0.80685661  0.95502018  0.42098775    -0.40800
C452        C  0.82979878  0.94158315  0.42548702     0.32600
C453        C  0.87855698  0.99363954  0.43353085     0.01200
F454        F  0.83137540  0.01925163  0.42090030    -0.13100
F455        F  0.82969193  0.91622378  0.42731780    -0.13600
C456        C  0.90119321  0.98709986  0.42063546     0.16100
C457        C  0.92497789  0.99636462  0.42876217     0.25500
C458        C  0.92671480  0.01262075  0.44989385    -0.40700
C459        C  0.90366064  0.02091416  0.46125727     0.32500
C460        C  0.88001660  0.01134815  0.45334148     0.14200
F461        F  0.90036862  0.97107584  0.40055519    -0.13100
F462        F  0.90394470  0.03696236  0.48133550    -0.13600
F463        F  0.94641147  0.98854551  0.41654298    -0.15900
F464        F  0.85870139  0.01811438  0.46632472    -0.14400
F465        F  0.87434437  0.94051922  0.43476919    -0.14500
F466        F  0.78625421  0.99493962  0.41461009    -0.15900
C467        C  0.69064308  0.72867560  0.18149859     0.14200
C468        C  0.67868066  0.75158144  0.17537380     0.01200
C469        C  0.68435420  0.77303349  0.18993303     0.16100
C470        C  0.70187999  0.77163416  0.21007142     0.25500
C471        C  0.71393637  0.74863161  0.21623303    -0.40800
C472        C  0.70781162  0.72713221  0.20177052     0.32600
C473        C  0.66057661  0.75283974  0.15361810     0.01200
F474        F  0.67274438  0.79535082  0.18480327    -0.13100
F475        F  0.71821786  0.70436345  0.20727576    -0.13600
C476        C  0.64010242  0.73613254  0.15183969     0.16100
C477        C  0.62439962  0.73556571  0.13037247     0.25500
C478        C  0.62847614  0.75206830  0.11022703    -0.40700
C479        C  0.64840526  0.76954476  0.11254968     0.32500
C480        C  0.66437058  0.76976213  0.13390599     0.14200
F481        F  0.63524762  0.72025993  0.17101471    -0.13100
F482        F  0.65311919  0.78598661  0.09385388    -0.13600
F483        F  0.60507314  0.71888584  0.12957558    -0.15900
F484        F  0.68418710  0.78591376  0.13483634    -0.14400
F485        F  0.68609539  0.70772052  0.16746146    -0.14500
F486        F  0.70735578  0.79295912  0.22312137    -0.15900
C487        C  0.81063143  0.67197681  0.23202177     0.14200
C488        C  0.82399132  0.66489112  0.25393931     0.01200
C489        C  0.81853236  0.67733957  0.27683392     0.16100
C490        C  0.80037601  0.69693441  0.27770315     0.25500
C491        C  0.78709989  0.70435481  0.25565476    -0.40800
C492        C  0.79236996  0.69139719  0.23281388     0.32600
C493        C  0.84394734  0.64482710  0.25273798     0.01200
F494        F  0.83118149  0.67081783  0.29831614    -0.13100
F495        F  0.78033013  0.69779076  0.21095745    -0.13600
C496        C  0.86605049  0.64803539  0.23827914     0.16100
C497        C  0.88505371  0.62924865  0.23723322     0.25500
C498        C  0.88234482  0.60687092  0.25071980    -0.40700
C499        C  0.86001632  0.60364729  0.26503308     0.32500
C500        C  0.84101923  0.62241971  0.26597067     0.14200
F501        F  0.86952740  0.66972681  0.22569331    -0.13100
F502        F  0.85632035  0.58210992  0.27782834    -0.13600
F503        F  0.90655162  0.63341439  0.22383940    -0.15900
F504        F  0.81954145  0.61857881  0.27953054    -0.14400
F505        F  0.81520293  0.65992380  0.20976156    -0.14500
F506        F  0.79567589  0.70840993  0.30022761    -0.15900
C507        C  0.76217600  0.79581601  0.33814686     0.14200
C508        C  0.75584976  0.82075664  0.33225524     0.01200
C509        C  0.74795208  0.82652182  0.30756491     0.16100
C510        C  0.74645787  0.80774319  0.28899192     0.25500
C511        C  0.75291805  0.78269695  0.29470071    -0.40800
C512        C  0.76073892  0.77692987  0.31954265     0.32600
C513        C  0.75691429  0.84095701  0.35170634     0.01200
F514        F  0.74204984  0.85055310  0.30134387    -0.13100
F515        F  0.76628537  0.75290761  0.32603543    -0.13600
C516        C  0.78037465  0.84880604  0.36194238     0.16100
C517        C  0.78143045  0.86984484  0.37808991     0.25500
C518        C  0.75892488  0.88338365  0.38442033    -0.40700
C519        C  0.73530516  0.87448523  0.37496907     0.32500
C520        C  0.73440983  0.85364801  0.35877303     0.14200
F521        F  0.80238806  0.83660629  0.35557638    -0.13100
F522        F  0.71289597  0.88628567  0.38063144    -0.13600
F523        F  0.80452338  0.87693116  0.38737062    -0.15900
F524        F  0.71143547  0.84602129  0.34960133    -0.14400
F525        F  0.76916443  0.78968032  0.36205593    -0.14500
F526        F  0.73936135  0.81428385  0.26522600    -0.15900
C527        C  0.88461347  0.03257562  0.55855928     0.14200
C528        C  0.86442862  0.01872531  0.54772301     0.01200
C529        C  0.87070744  0.99881769  0.53119133     0.16100
C530        C  0.89630941  0.99334719  0.52505390     0.25500
C531        C  0.91665385  0.00764452  0.53530354    -0.40800
C532        C  0.91029291  0.02709990  0.55253879     0.32600
C533        C  0.83700172  0.02533748  0.55352629     0.01200
F534        F  0.85196533  0.98456659  0.52081743    -0.13100
F535        F  0.92879232  0.04167142  0.56286032    -0.13600
C536        C  0.81899453  0.03053992  0.53415343     0.16100
C537        C  0.79407366  0.03919235  0.53991568     0.25500
C538        C  0.78669881  0.04318414  0.56516318    -0.40700
C539        C  0.80415685  0.03630595  0.58444030     0.32500
C540        C  0.82885521  0.02747806  0.57870669     0.14200
F541        F  0.82592968  0.02865887  0.50957777    -0.13100
F542        F  0.79745220  0.03855898  0.60907897    -0.13600
F543        F  0.77779976  0.04522894  0.52076072    -0.15900
F544        F  0.84501243  0.02131185  0.59792574    -0.14400
F545        F  0.87942378  0.05228594  0.57422598    -0.14500
F546        F  0.90092453  0.97443197  0.50827450    -0.15900
C547        C  0.72802489  0.16515975  0.69544860     0.14200
C548        C  0.74967175  0.16150713  0.68028746     0.01200
C549        C  0.77099922  0.17673517  0.68429795     0.16100
C550        C  0.77025697  0.19608505  0.70239779     0.25500
C551        C  0.74806529  0.20064002  0.71691973    -0.40800
C552        C  0.72716529  0.18446497  0.71353329     0.32600
C553        C  0.74901383  0.14316064  0.65904453     0.01200
F554        F  0.79221723  0.17353697  0.66995734    -0.13100
F555        F  0.70539154  0.18776363  0.72697487    -0.13600
C556        C  0.73075981  0.14616593  0.63970781     0.16100
C557        C  0.72925353  0.12882323  0.61981577     0.25500
C558        C  0.74609343  0.10795560  0.61870745    -0.40700
C559        C  0.76480531  0.10526727  0.63793736     0.32500
C560        C  0.76622838  0.12273505  0.65788976     0.14200
F561        F  0.71453979  0.16627406  0.63990113    -0.13100
F562        F  0.78138094  0.08544985  0.63786539    -0.13600
F563        F  0.71154726  0.13289373  0.60138398    -0.15900
F564        F  0.78404178  0.11938483  0.67639150    -0.14400
F565        F  0.70741260  0.15021148  0.69236252    -0.14500
F566        F  0.79128775  0.21044052  0.70542375    -0.15900
C567        C  0.69166367  0.26136759  0.82958678     0.14200
C568        C  0.66949289  0.24698746  0.82753726     0.01200
C569        C  0.66584358  0.23175609  0.80606432     0.16100
C570        C  0.68421765  0.23073118  0.78696914     0.25500
C571        C  0.70663198  0.24509773  0.78891778    -0.40800
C572        C  0.71001077  0.26053123  0.81050577     0.32600
C573        C  0.65060779  0.24724256  0.84822851     0.01200
F574        F  0.64466434  0.21744694  0.80384408    -0.13100
F575        F  0.73136932  0.27443211  0.81358924    -0.13600
C576        C  0.62584319  0.25716066  0.84446693     0.16100
C577        C  0.60797512  0.25698828  0.86403326     0.25500
C578        C  0.61448801  0.24641788  0.88749542    -0.40700
C579        C  0.63938108  0.23676351  0.89126451     0.32500
C580        C  0.65731394  0.23732595  0.87185811     0.14200
F581        F  0.61901752  0.26703423  0.82184052    -0.13100
F582        F  0.64646748  0.22707957  0.91390419    -0.13600
F583        F  0.58406758  0.26634360  0.85975042    -0.15900
F584        F  0.68114745  0.22771827  0.87595898    -0.14400
F585        F  0.69552149  0.27630428  0.85015839    -0.14500
F586        F  0.67981217  0.21585065  0.76648821    -0.15900
C587        C  0.84446300  0.35127641  0.72101841     0.14200
C588        C  0.83626720  0.34094346  0.74372781     0.01200
C589        C  0.84797512  0.34830776  0.76649027     0.16100
C590        C  0.86787303  0.36556220  0.76659094     0.25500
C591        C  0.87635305  0.37600094  0.74381414    -0.40800
C592        C  0.86421739  0.36869568  0.72100675     0.32600
C593        C  0.81651456  0.32138867  0.74364443     0.01200
F594        F  0.84050004  0.33826567  0.78862673    -0.13100
F595        F  0.87182237  0.37784376  0.69851865    -0.13600
C596        C  0.82226929  0.29741432  0.73399406     0.16100
C597        C  0.80438320  0.27826601  0.73527918     0.25500
C598        C  0.78018128  0.28276434  0.74615058    -0.40700
C599        C  0.77429980  0.30711206  0.75531860     0.32500
C600        C  0.79236499  0.32619471  0.75412755     0.14200
F601        F  0.84564165  0.29232970  0.72404830    -0.13100
F602        F  0.75099953  0.31261103  0.76521903    -0.13600
F603        F  0.81126778  0.25509652  0.72671434    -0.15900
F604        F  0.78628009  0.34943618  0.76313055    -0.14400
F605        F  0.83334914  0.34437908  0.69879015    -0.14500
F606        F  0.87865356  0.37207979  0.78908689    -0.15900
C607        C  0.30198726  0.25552154  0.17177703     0.14200
C608        C  0.32563727  0.24363464  0.17633375     0.01200
C609        C  0.33038366  0.23274822  0.19991568     0.16100
C610        C  0.31188897  0.23401725  0.21889692     0.25500
C611        C  0.28828800  0.24655455  0.21476093    -0.40800
C612        C  0.28348827  0.25702856  0.19075442     0.32600
C613        C  0.34583111  0.24358774  0.15689664     0.01200
F614        F  0.35316433  0.22113935  0.20465329    -0.13100
F615        F  0.26084109  0.26866567  0.18548234    -0.13600
C616        C  0.36581229  0.26075675  0.15873961     0.16100
C617        C  0.38494825  0.26102308  0.14045096     0.25500
C618        C  0.38458860  0.24391918  0.11988976    -0.40700
C619        C  0.36447421  0.22660198  0.11823069     0.32500
C620        C  0.34525391  0.22653876  0.13653466     0.14200
F621        F  0.36671232  0.27740885  0.17829755    -0.13100
F622        F  0.36303397  0.21001045  0.09866672    -0.13600
F623        F  0.40405405  0.27780005  0.14326563    -0.15900
F624        F  0.32609490  0.20973240  0.13446035    -0.14400
F625        F  0.29704408  0.26616660  0.14905708    -0.14500
F626        F  0.31755670  0.22367985  0.24158255    -0.15900
C627        C  0.13899588  0.35142669  0.24045796     0.14200
C628        C  0.16180867  0.35461861  0.25418183     0.01200
C629        C  0.16582762  0.37736130  0.26723637     0.16100
C630        C  0.14708092  0.39644978  0.26683131     0.25500
C631        C  0.12408476  0.39310746  0.25322046    -0.40800
C632        C  0.12035276  0.37037126  0.23999981     0.32600
C633        C  0.18096867  0.33386073  0.25500176     0.01200
F634        F  0.18769520  0.38090531  0.28072420    -0.13100
F635        F  0.09829878  0.36607217  0.22707886    -0.13600
C636        C  0.20575330  0.33702141  0.24562666     0.16100
C637        C  0.22316685  0.31680436  0.24494929     0.25500
C638        C  0.21615258  0.29313204  0.25388889    -0.40700
C639        C  0.19136929  0.29011525  0.26344746     0.32500
C640        C  0.17399438  0.31026662  0.26400426     0.14200
F641        F  0.21291765  0.35956255  0.23663783    -0.13100
F642        F  0.18365940  0.26745231  0.27165533    -0.13600
F643        F  0.24704714  0.32053603  0.23602933    -0.15900
F644        F  0.15024994  0.30675455  0.27339494    -0.14400
F645        F  0.13479126  0.32986299  0.22729741    -0.14500
F646        F  0.15163515  0.41830231  0.27935906    -0.15900
C647        C  0.16277281  0.06493526  0.44940104     0.14200
C648        C  0.16408916  0.04014245  0.45829832     0.01200
C649        C  0.18865377  0.03007868  0.46399856     0.16100
C650        C  0.21098348  0.04429617  0.46068920     0.25500
C651        C  0.20958689  0.06878321  0.45089154    -0.40800
C652        C  0.18499344  0.07884023  0.44550185     0.32600
C653        C  0.13974475  0.02563128  0.46243634     0.01200
F654        F  0.19125705  0.00615234  0.47216244    -0.13100
F655        F  0.18217478  0.10260099  0.43689937    -0.13600
C656        C  0.11981034  0.02538624  0.44420885     0.16100
C657        C  0.09561625  0.01551109  0.44975831     0.25500
C658        C  0.09088057  0.00441123  0.47327012    -0.40700
C659        C  0.11172620  0.00214440  0.49032229     0.32500
C660        C  0.13540174  0.01330461  0.48535085     0.14200
F661        F  0.12354444  0.03522090  0.42103782    -0.13100
F662        F  0.10881583  0.99050046  0.51271101    -0.13600
F663        F  0.07662818  0.01732037  0.43221901    -0.15900
F664        F  0.15348866  0.01360898  0.50382106    -0.14400
F665        F  0.13973799  0.07620583  0.44507144    -0.14500
F666        F  0.23402875  0.03371924  0.46644998    -0.15900
C667        C  0.27415408  0.18885540  0.32382886     0.14200
C668        C  0.25205283  0.18647195  0.33851577     0.01200
C669        C  0.23015449  0.20064815  0.33215277     0.16100
C670        C  0.23012465  0.21655641  0.31132169     0.25500
C671        C  0.25214158  0.21883612  0.29629657    -0.40800
C672        C  0.27421896  0.20481352  0.30295335     0.32600
C673        C  0.25160069  0.16894479  0.36019942     0.01200
F674        F  0.20876252  0.19933622  0.34638935    -0.13100
F675        F  0.29611024  0.20682395  0.28961123    -0.13600
C676        C  0.26913307  0.17133443  0.38028798     0.16100
C677        C  0.26895130  0.15453082  0.40042449     0.25500
C678        C  0.25115620  0.13485216  0.40099677    -0.40700
C679        C  0.23322812  0.13289991  0.38106975     0.32500
C680        C  0.23353944  0.14968506  0.36089820     0.14200
F681        F  0.28630248  0.19019207  0.38058215    -0.13100
F682        F  0.21594813  0.11416632  0.38050315    -0.13600
F683        F  0.28611669  0.15780804  0.41949420    -0.15900
F684        F  0.21663498  0.14661967  0.34155344    -0.14400
F685        F  0.29564857  0.17541342  0.32947472    -0.14500
F686        F  0.20826023  0.22943335  0.30575913    -0.15900
C687        C  0.96373257  0.39746216  0.82766461     0.14200
C688        C  0.97317514  0.42086528  0.83510624     0.01200
C689        C  0.97321133  0.44042196  0.81753433     0.16100
C690        C  0.96195580  0.43729036  0.79359538     0.25500
C691        C  0.95019882  0.41452504  0.78689262    -0.40800
C692        C  0.95238772  0.39425676  0.80379864     0.32600
C693        C  0.97791777  0.42647608  0.86221579     0.01200
F694        F  0.98266825  0.46313697  0.82424393    -0.13100
F695        F  0.94262282  0.37151591  0.79770290    -0.13600
C696        C  0.00013884  0.41830093  0.87504233     0.16100
C697        C  0.00465976  0.42590305  0.90024662     0.25500
C698        C  0.98686123  0.44160934  0.91285213    -0.40700
C699        C  0.96384182  0.44807457  0.90030929     0.32500
C700        C  0.95956764  0.44075462  0.87531824     0.14200
F701        F  0.01792474  0.40403145  0.86282984    -0.13100
F702        F  0.94578036  0.46254863  0.91191865    -0.13600
F703        F  0.02709276  0.41935670  0.91162389    -0.15900
F704        F  0.93763917  0.44826483  0.86353922    -0.14400
F705        F  0.96378053  0.37822205  0.84421559    -0.14500
F706        F  0.96090535  0.45718420  0.77786010    -0.15900
C707        C  0.96804848  0.57107615  0.16613041     0.14200
C708        C  0.97617505  0.54629670  0.16104663     0.01200
C709        C  0.97253305  0.52805429  0.17956758     0.16100
C710        C  0.96054409  0.53430655  0.20246786     0.25500
C711        C  0.95161723  0.55897902  0.20730355    -0.40800
C712        C  0.95590084  0.57736492  0.18894996     0.32600
C713        C  0.98615079  0.53901382  0.13560813     0.01200
F714        F  0.97931142  0.50381273  0.17491845    -0.13100
F715        F  0.94834248  0.60150822  0.19305616    -0.13600
C716        C  0.01154504  0.53065992  0.13222893     0.16100
C717        C  0.02008459  0.52233527  0.10834332     0.25500
C718        C  0.00337865  0.52233751  0.08720829    -0.40700
C719        C  0.97806834  0.53135506  0.09077223     0.32500
C720        C  0.96967719  0.53954467  0.11457813     0.14200
F721        F  0.02807324  0.53051704  0.15212641    -0.13100
F722        F  0.96091833  0.53160094  0.07138870    -0.13600
F723        F  0.04446243  0.51355570  0.10618617    -0.15900
F724        F  0.94496940  0.54719409  0.11730641    -0.14400
F725        F  0.97158602  0.58917417  0.14875770    -0.14500
F726        F  0.95642740  0.51581695  0.21928924    -0.15900
C727        C  0.03474810  0.43198866  0.11473520     0.14200
C728        C  0.01813539  0.43724962  0.13480849     0.01200
C729        C  0.99287867  0.44488088  0.12961983     0.16100
C730        C  0.98464728  0.44836895  0.10464537     0.25500
C731        C  0.00175227  0.44460703  0.08443922    -0.40800
C732        C  0.02668730  0.43555757  0.08980769     0.32600
C733        C  0.02779336  0.43574180  0.16106848     0.01200
F734        F  0.97640895  0.44961734  0.14881222    -0.13100
F735        F  0.04382362  0.43133309  0.07106103    -0.13600
C736        C  0.03182470  0.45769339  0.17538592     0.16100
C737        C  0.04395591  0.45652139  0.19905335     0.25500
C738        C  0.05254584  0.43332038  0.20851806    -0.40700
C739        C  0.04731867  0.41128081  0.19459884     0.32500
C740        C  0.03514512  0.41251703  0.17107100     0.14200
F741        F  0.02547360  0.48036714  0.16569893    -0.13100
F742        F  0.05428643  0.38846253  0.20363945    -0.13600
F743        F  0.04877537  0.47816045  0.21185878    -0.15900
F744        F  0.03112431  0.39105832  0.15768508    -0.14400
F745        F  0.05931892  0.42471060  0.11937454    -0.14500
F746        F  0.96042116  0.45689840  0.10045777    -0.15900
C747        C  0.17556330  0.53881807  0.02212852     0.14200
C748        C  0.15787966  0.55762111  0.01493362     0.01200
C749        C  0.16490453  0.58284567  0.01724422     0.16100
C750        C  0.18862930  0.58921186  0.02777298     0.25500
C751        C  0.20589871  0.57043322  0.03609935    -0.40800
C752        C  0.19939203  0.54514057  0.03245765     0.32600
C753        C  0.13167242  0.55073865  0.00656623     0.01200
F754        F  0.14863840  0.60134482  0.00953258    -0.13100
F755        F  0.21538053  0.52648548  0.04032589    -0.13600
C756        C  0.11019250  0.55902171  0.02031481     0.16100
C757        C  0.08594553  0.54923152  0.01509662     0.25500
C758        C  0.08273358  0.53084614  0.99602411    -0.40700
C759        C  0.10401181  0.52435393  0.98084861     0.32500
C760        C  0.12815407  0.53409743  0.98618690     0.14200
F761        F  0.11297683  0.57528345  0.04001957    -0.13100
F762        F  0.10193913  0.50746498  0.96158830    -0.13600
F763        F  0.06606177  0.55660478  0.02985757    -0.15900
F764        F  0.14838214  0.52649917  0.97198026    -0.14400
F765        F  0.16920181  0.51427054  0.02043117    -0.14500
F766        F  0.19463630  0.61381910  0.02996342    -0.15900
C767        C  0.88429085  0.43233754  0.98048929     0.14200
C768        C  0.88170986  0.41667371  0.00143398     0.01200
C769        C  0.90380936  0.40856283  0.01438132     0.16100
C770        C  0.92776255  0.41792655  0.00815933     0.25500
C771        C  0.93004147  0.43596259  0.98903718    -0.40800
C772        C  0.90821781  0.44183008  0.97425230     0.32600
C773        C  0.85608821  0.41184089  0.01209241     0.01200
F774        F  0.90195497  0.39341017  0.03467833    -0.13100
F775        F  0.90955817  0.45824093  0.95492727    -0.13600
C776        C  0.84790866  0.38733027  0.01663645     0.16100
C777        C  0.82507320  0.38329718  0.02959083     0.25500
C778        C  0.80988847  0.40373856  0.03796861    -0.40700
C779        C  0.81775140  0.42820978  0.03264758     0.32500
C780        C  0.84067277  0.43218037  0.02006762     0.14200
F781        F  0.86221045  0.36732595  0.00879469    -0.13100
F782        F  0.80406619  0.44844199  0.04097743    -0.13600
F783        F  0.81781396  0.35941292  0.03390798    -0.15900
F784        F  0.84859404  0.45603757  0.01703136    -0.14400
F785        F  0.86333747  0.43969909  0.96702895    -0.14500
F786        F  0.94824368  0.41098900  0.02251490    -0.15900
C787        C  0.98194358  0.16984350  0.41262210     0.14200
C788        C  0.98864652  0.16370574  0.43755455     0.01200
C789        C  0.98355140  0.18116876  0.45702903     0.16100
C790        C  0.97145173  0.20413897  0.45175003     0.25500
C791        C  0.96379562  0.20984649  0.42690792    -0.40800
C792        C  0.96955728  0.19262194  0.40735337     0.32600
C793        C  0.99856010  0.13823951  0.44361499     0.01200
F794        F  0.98883001  0.17530674  0.48138945    -0.13100
F795        F  0.96311063  0.19778633  0.38306447    -0.13600
C796        C  0.02197432  0.13479316  0.45643298     0.16100
C797        C  0.02952591  0.11094964  0.46487477     0.25500
C798        C  0.01372114  0.09009455  0.46060734    -0.40700
C799        C  0.99108791  0.09347964  0.44621480     0.32500
C800        C  0.98356768  0.11726849  0.43801191     0.14200
F801        F  0.03721430  0.15467215  0.46133007    -0.13100
F802        F  0.97534409  0.07401149  0.44110450    -0.13600
F803        F  0.05158152  0.10863763  0.47839521    -0.15900
F804        F  0.96071576  0.12004012  0.42590868    -0.14400
F805        F  0.98696391  0.15350596  0.39339538    -0.14500
F806        F  0.96581688  0.22006207  0.47116549    -0.15900
C807        C  0.71016658  0.15432070  0.25661095     0.14200
C808        C  0.68587676  0.15847117  0.24570865     0.01200
C809        C  0.68012364  0.18202531  0.23529533     0.16100
C810        C  0.69840235  0.20094398  0.23542205     0.25500
C811        C  0.72280334  0.19680252  0.24620239    -0.40800
C812        C  0.72840158  0.17331121  0.25698283     0.32600
C813        C  0.66648349  0.13834586  0.24532639     0.01200
F814        F  0.65655409  0.18688918  0.22541135    -0.13100
F815        F  0.75183159  0.16837094  0.26714518    -0.13600
C816        C  0.65851760  0.12754209  0.26793213     0.16100
C817        C  0.63992738  0.10892804  0.26770338     0.25500
C818        C  0.62866018  0.10071464  0.24477315    -0.40700
C819        C  0.63693693  0.11146122  0.22208114     0.32500
C820        C  0.65562923  0.13002734  0.22240147     0.14200
F821        F  0.66834902  0.13544861  0.29041097    -0.13100
F822        F  0.62660639  0.10450801  0.19951421    -0.13600
F823        F  0.63313928  0.09892213  0.29007446    -0.15900
F824        F  0.66327407  0.13981395  0.20020430    -0.14400
F825        F  0.71646934  0.13161089  0.26636435    -0.14500
F826        F  0.69195293  0.22354590  0.22551167    -0.15900
C827        C  0.75088960  0.34414009  0.14629367     0.14200
C828        C  0.76422749  0.32145053  0.14271868     0.01200
C829        C  0.77842805  0.31751832  0.12064722     0.16100
C830        C  0.77916238  0.33611519  0.10219916     0.25500
C831        C  0.76560994  0.35894664  0.10560384    -0.40800
C832        C  0.75153888  0.36272855  0.12796902     0.32600
C833        C  0.76408722  0.30244472  0.16270831     0.01200
F834        F  0.79157911  0.29566366  0.11702367    -0.13100
F835        F  0.73896035  0.38472111  0.13255110    -0.13600
C836        C  0.74438461  0.28498612  0.16385470     0.16100
C837        C  0.74344108  0.26803028  0.18381465     0.25500
C838        C  0.76224154  0.26836193  0.20316614    -0.40700
C839        C  0.78211116  0.28601361  0.20160744     0.32500
C840        C  0.78294503  0.30278023  0.18158414     0.14200
F841        F  0.72584472  0.28460983  0.14575986    -0.13100
F842        F  0.80079236  0.28741596  0.21949106    -0.13600
F843        F  0.72386323  0.25162302  0.18422292    -0.15900
F844        F  0.80200713  0.31976126  0.18083661    -0.14400
F845        F  0.73751870  0.34841560  0.16781502    -0.14500
F846        F  0.79272824  0.33155109  0.08086207    -0.15900
C847        C  0.81035846  0.23693847  0.32852179     0.14200
C848        C  0.83481054  0.24556216  0.32268290     0.01200
C849        C  0.84063085  0.25111672  0.29760547     0.16100
C850        C  0.82228120  0.24811169  0.27853224     0.25500
C851        C  0.79770551  0.23930002  0.28417372    -0.40800
C852        C  0.79195983  0.23367123  0.30940585     0.32600
C853        C  0.85484321  0.24743987  0.34241223     0.01200
F854        F  0.86421665  0.25940077  0.29160182    -0.13100
F855        F  0.76842288  0.22549022  0.31567795    -0.13600
C856        C  0.87497371  0.22985208  0.34280160     0.16100
C857        C  0.89431223  0.23147556  0.36105808     0.25500
C858        C  0.89402346  0.25093583  0.37936516    -0.40700
C859        C  0.87374718  0.26873006  0.37874116     0.32500
C860        C  0.85430647  0.26689515  0.36044867     0.14200
F861        F  0.87582859  0.21094851  0.32542770    -0.13100
F862        F  0.87242110  0.28773082  0.39596854    -0.13600
F863        F  0.91352532  0.21411454  0.36039580    -0.15900
F864        F  0.83510382  0.28429370  0.36011597    -0.14400
F865        F  0.80448210  0.23131608  0.35269688    -0.14500
F866        F  0.82887051  0.25321291  0.25441662    -0.15900
C867        C  0.03271068  0.55363414  0.82634396     0.14200
C868        C  0.04285372  0.56517535  0.84807863     0.01200
C869        C  0.06222552  0.58271126  0.84578120     0.16100
C870        C  0.07254675  0.58766324  0.82224977     0.25500
C871        C  0.06388815  0.57478676  0.80031948    -0.40800
C872        C  0.04306810  0.55841184  0.80258680     0.32600
C873        C  0.03725615  0.55534696  0.87322467     0.01200
F874        F  0.07228452  0.59392976  0.86668924    -0.13100
F875        F  0.03324811  0.54630582  0.78209694    -0.13600
C876        C  0.05469168  0.53831905  0.88393422     0.16100
C877        C  0.04972372  0.52763504  0.90715031     0.25500
C878        C  0.02691977  0.53353142  0.92007615    -0.40700
C879        C  0.01005257  0.55173521  0.90994547     0.32500
C880        C  0.01521534  0.56255179  0.88653772     0.14200
F881        F  0.07621089  0.53132858  0.87134079    -0.13100
F882        F  0.98794435  0.55795398  0.92186142    -0.13600
F883        F  0.06687137  0.51068600  0.91648008    -0.15900
F884        F  0.99849744  0.57952197  0.87659199    -0.14400
F885        F  0.01384923  0.53657047  0.82835173    -0.14500
F886        F  0.09185753  0.60432969  0.82144851    -0.15900
C887        C  0.16647262  0.97673024  0.56206151     0.14200
C888        C  0.15194864  0.98540315  0.58270130     0.01200
C889        C  0.16142598  0.98138653  0.60726511     0.16100
C890        C  0.18491824  0.96882426  0.61104267     0.25500
C891        C  0.19953284  0.96037834  0.59028997    -0.40800
C892        C  0.19014048  0.96470318  0.56576902     0.32600
C893        C  0.12630705  0.99712522  0.57819217     0.01200
F894        F  0.14790208  0.98957886  0.62757922    -0.13100
F895        F  0.20323440  0.95609229  0.54533337    -0.13600
C896        C  0.10409439  0.98498559  0.58590017     0.16100
C897        C  0.07996769  0.99288374  0.57705890     0.25500
C898        C  0.07757365  0.01308120  0.56012812    -0.40700
C899        C  0.09967054  0.02689034  0.55476961     0.32500
C900        C  0.12377466  0.01886425  0.56358694     0.14200
F901        F  0.10590936  0.96413928  0.60030117    -0.13100
F902        F  0.09831859  0.04702590  0.53934933    -0.13600
F903        F  0.05928626  0.97932187  0.58344541    -0.15900
F904        F  0.14487253  0.03154388  0.55669357    -0.14400
F905        F  0.15706772  0.97870630  0.53824776    -0.14500
F906        F  0.19353332  0.96517082  0.63498813    -0.15900
C907        C  0.17938792  0.69874247  0.74624515     0.14200
C908        C  0.18681241  0.67384193  0.75098225     0.01200
C909        C  0.21263654  0.66792124  0.75538136     0.16100
C910        C  0.23091854  0.68669884  0.75514431     0.25500
C911        C  0.22360374  0.71177140  0.75060171    -0.40800
C912        C  0.19766436  0.71761713  0.74600073     0.32600
C913        C  0.16762946  0.65394945  0.75137881     0.01200
F914        F  0.22013922  0.64385356  0.75964077    -0.13100
F915        F  0.18986923  0.74167161  0.74219791    -0.13600
C916        C  0.15537896  0.64640988  0.72897467     0.16100
C917        C  0.13707311  0.62761421  0.72930383     0.25500
C918        C  0.13057988  0.61620727  0.75220242    -0.40700
C919        C  0.14346140  0.62349504  0.77456075     0.32500
C920        C  0.16178718  0.64223411  0.77411018     0.14200
F921        F  0.16127461  0.65723542  0.70674274    -0.13100
F922        F  0.13864916  0.61229831  0.79686738    -0.13600
F923        F  0.12531508  0.62111388  0.70729031    -0.15900
F924        F  0.17361442  0.64922233  0.79595301    -0.14400
F925        F  0.15434713  0.70480600  0.74250220    -0.14500
F926        F  0.25585834  0.68023977  0.75885869    -0.15900
C927        C  0.26925090  0.83441467  0.70930633     0.14200
C928        C  0.25459411  0.83312817  0.68700118     0.01200
C929        C  0.24172833  0.81086255  0.68103958     0.16100
C930        C  0.24317421  0.79035695  0.69722752     0.25500
C931        C  0.25776729  0.79157365  0.71972399    -0.40800
C932        C  0.27091475  0.81388654  0.72544612     0.32600
C933        C  0.25279585  0.85487966  0.66982940     0.01200
F934        F  0.22815224  0.80876685  0.65916738    -0.13100
F935        F  0.28499994  0.81621398  0.74695322    -0.13600
C936        C  0.27498897  0.86532108  0.65988249     0.16100
C937        C  0.27325479  0.88515563  0.64290658     0.25500
C938        C  0.24918930  0.89486596  0.63520298    -0.40700
C939        C  0.22698136  0.88467143  0.64570887     0.32500
C940        C  0.22882625  0.86498635  0.66289028     0.14200
F941        F  0.29842573  0.85584463  0.66606717    -0.13100
F942        F  0.20335704  0.89319924  0.63893573    -0.13600
F943        F  0.29530038  0.89477371  0.63407468    -0.15900
F944        F  0.20709228  0.85575394  0.67281212    -0.14400
F945        F  0.28159117  0.85579845  0.71577625    -0.14500
F946        F  0.23069342  0.76914532  0.69045839    -0.15900
C947        C  0.33626094  0.76484868  0.81312121     0.14200
C948        C  0.34144143  0.74194104  0.82491342     0.01200
C949        C  0.32691993  0.72091747  0.81849640     0.16100
C950        C  0.30726023  0.72276679  0.80057526     0.25500
C951        C  0.30182386  0.74579716  0.78858763    -0.40800
C952        C  0.31668487  0.76681635  0.79511395     0.32600
C953        C  0.36158246  0.74011774  0.84444552     0.01200
F954        F  0.33147828  0.69866433  0.83001130    -0.13100
F955        F  0.31203434  0.78950224  0.78459070    -0.13600
C956        C  0.35858226  0.75278970  0.86759806     0.16100
C957        C  0.37736179  0.75074565  0.88639230     0.25500
C958        C  0.39944413  0.73589745  0.88231069    -0.40700
C959        C  0.40248022  0.72338910  0.85893276     0.32500
C960        C  0.38365354  0.72549287  0.84015963     0.14200
F961        F  0.33710931  0.76664800  0.87219687    -0.13100
F962        F  0.42391332  0.70958913  0.85400708    -0.13600
F963        F  0.37349414  0.76261198  0.90887373    -0.15900
F964        F  0.38706990  0.71352160  0.81765043    -0.14400
F965        F  0.35026738  0.78535316  0.81905942    -0.14500
F966        F  0.29370649  0.70187725  0.79502178    -0.15900
C967        C  0.56952841  0.82472434  0.01235988     0.14200
C968        C  0.59022369  0.84128509  0.01364721     0.01200
C969        C  0.61377057  0.83263931  0.02315177     0.16100
C970        C  0.61620645  0.80844012  0.03285502     0.25500
C971        C  0.59494583  0.79245666  0.03370323    -0.40800
C972        C  0.57185503  0.80044288  0.02226455     0.32600
C973        C  0.58622725  0.86839958  0.00870210     0.01200
F974        F  0.63411328  0.84814571  0.02420391    -0.13100
F975        F  0.55098035  0.78562516  0.02247285    -0.13600
C976        C  0.58317441  0.88507574  0.02918827     0.16100
C977        C  0.57559050  0.90998831  0.02522100     0.25500
C978        C  0.57086963  0.91877778  0.00063135    -0.40700
C979        C  0.57638926  0.90264285  0.97998987     0.32500
C980        C  0.58376893  0.87755140  0.98404363     0.14200
F981        F  0.58564849  0.87668123  0.05319783    -0.13100
F982        F  0.57200373  0.91028202  0.95595727    -0.13600
F983        F  0.57070679  0.92497426  0.04555929    -0.15900
F984        F  0.58718189  0.86185732  0.96395734    -0.14400
F985        F  0.54653993  0.83273080  0.00320027    -0.14500
F986        F  0.63923744  0.80100815  0.04238470    -0.15900
C987        C  0.43648159  0.81356903  0.96992239     0.14200
C988        C  0.46193706  0.81752716  0.97744031     0.01200
C989        C  0.47993977  0.79787676  0.97464562     0.16100
C990        C  0.47306406  0.77533773  0.96281720     0.25500
C991        C  0.44800690  0.77208793  0.95346862    -0.40800
C992        C  0.42956534  0.79107636  0.95806264     0.32600
C993        C  0.47031604  0.84307792  0.98474670     0.01200
F994        F  0.50453044  0.80097332  0.98234241    -0.13100
F995        F  0.40492201  0.78820018  0.95043397    -0.13600
C996        C  0.45937112  0.85618526  0.00525166     0.16100
C997        C  0.46586690  0.88120421  0.01030981     0.25500
C998        C  0.48328163  0.89360044  0.99477568    -0.40700
C999        C  0.49467843  0.88004814  0.97465186     0.32500
C1000       C  0.48819916  0.85518281  0.96971111     0.14200
F1001       F  0.44228033  0.84478088  0.02027935    -0.13100
F1002       F  0.51222786  0.89074585  0.95957955    -0.13600
F1003       F  0.45461614  0.89342075  0.02999298    -0.15900
F1004       F  0.49876753  0.84315346  0.94951677    -0.14400
F1005       F  0.41863755  0.83213440  0.97251329    -0.14500
F1006       F  0.49141469  0.75745713  0.95902766    -0.15900
C1007       C  0.53368180  0.98775738  0.12574613     0.14200
C1008       C  0.55724200  0.99952754  0.12995293     0.01200
C1009       C  0.57475443  0.00059235  0.11005386     0.16100
C1010       C  0.56814091  0.99187327  0.08589263     0.25500
C1011       C  0.54380573  0.98181492  0.08105930    -0.40800
C1012       C  0.52705646  0.97884507  0.10154769     0.32600
C1013       C  0.56287407  0.01269036  0.15422861     0.01200
F1014       F  0.59802756  0.01100235  0.11385280    -0.13100
F1015       F  0.50353938  0.96896633  0.09790107    -0.13600
C1016       C  0.56480234  0.99961023  0.17707224     0.16100
C1017       C  0.57091443  0.01234463  0.19963971     0.25500
C1018       C  0.57539904  0.03832095  0.19965429    -0.40700
C1019       C  0.57315156  0.05137210  0.17683015     0.32500
C1020       C  0.56677853  0.03872524  0.15441045     0.14200
F1021       F  0.56146919  0.97442979  0.17738950    -0.13100
F1022       F  0.57648739  0.07655163  0.17633772    -0.13600
F1023       F  0.57335779  0.99914905  0.22130877    -0.15900
F1024       F  0.56406461  0.05199404  0.13280693    -0.14400
F1025       F  0.51638908  0.98640875  0.14463910    -0.14500
F1026       F  0.58523475  0.99427833  0.06696541    -0.15900
C1027       C  0.42072288  0.97587802  0.15477168     0.14200
C1028       C  0.43949433  0.96590698  0.13855431     0.01200
C1029       C  0.45632014  0.94716819  0.14766443     0.16100
C1030       C  0.45407264  0.93824305  0.17238399     0.25500
C1031       C  0.43483581  0.94774165  0.18834122    -0.40800
C1032       C  0.41822746  0.96666083  0.17932180     0.32600
C1033       C  0.44196764  0.97527788  0.11231817     0.01200
F1034       F  0.47473616  0.93727896  0.13246811    -0.13100
F1035       F  0.39899993  0.97562084  0.19408969    -0.13600
C1036       C  0.45028870  0.99976289  0.10813164     0.16100
C1037       C  0.45676438  0.00738074  0.08380376     0.25500
C1038       C  0.45529552  0.99057022  0.06311009    -0.40700
C1039       C  0.44408542  0.96697436  0.06696275     0.32500
C1040       C  0.43774926  0.95935500  0.09139677     0.14200
F1041       F  0.45415138  0.01567574  0.12792518    -0.13100
F1042       F  0.44134523  0.95032934  0.04757560    -0.13600
F1043       F  0.46651307  0.03059404  0.08084920    -0.15900
F1044       F  0.42863992  0.93593758  0.09479865    -0.14400
F1045       F  0.40416461  0.99385737  0.14646595    -0.14500
F1046       F  0.46978512  0.91937925  0.18027682    -0.15900
C1047       C  0.46267659  0.17872286  0.02252466     0.14200
C1048       C  0.45045841  0.15609616  0.02756300     0.01200
C1049       C  0.43070809  0.15595792  0.04530593     0.16100
C1050       C  0.42341284  0.17795904  0.05806075     0.25500
C1051       C  0.43591229  0.20075290  0.05355119    -0.40800
C1052       C  0.45551349  0.20082334  0.03527850     0.32600
C1053       C  0.45977645  0.13213934  0.01631077     0.01200
F1054       F  0.41926491  0.13414550  0.05125521    -0.13100
F1055       F  0.46819734  0.22209687  0.02988017    -0.13600
C1056       C  0.48502006  0.12413686  0.02095362     0.16100
C1057       C  0.49301239  0.10008994  0.01388854     0.25500
C1058       C  0.47582364  0.08321735  0.00252056    -0.40700
C1059       C  0.45121782  0.09196102  0.99565410     0.32500
C1060       C  0.44316254  0.11622979  0.00280239     0.14200
F1061       F  0.50163458  0.13907986  0.03369119    -0.13100
F1062       F  0.43471412  0.07686699  0.98295220    -0.13600
F1063       F  0.51767638  0.09319957  0.01850829    -0.15900
F1064       F  0.41897768  0.12403142  0.99714430    -0.14400
F1065       F  0.48188868  0.17933927  0.00545911    -0.14500
F1066       F  0.40453483  0.17653581  0.07537509    -0.15900
C1067       C  0.59521173  0.15747514  0.96573554     0.14200
C1068       C  0.57144875  0.14580159  0.96747854     0.01200
C1069       C  0.54898564  0.16013906  0.96342294     0.16100
C1070       C  0.55032257  0.18532553  0.95621188     0.25500
C1071       C  0.57419848  0.19650301  0.95262490    -0.40800
C1072       C  0.59659446  0.18253233  0.95824284     0.32600
C1073       C  0.56997690  0.11817295  0.97047131     0.01200
F1074       F  0.52573903  0.14934268  0.96533386    -0.13100
F1075       F  0.61994903  0.19292148  0.95559208    -0.13600
C1076       C  0.57616285  0.10645575  0.99341713     0.16100
C1077       C  0.57131653  0.08078765  0.99663516     0.25500
C1078       C  0.56019072  0.06652321  0.97685311    -0.40700
C1079       C  0.55690196  0.07788010  0.95311736     0.32500
C1080       C  0.56138855  0.10342645  0.95010163     0.14200
F1081       F  0.58517981  0.12021559  0.01320604    -0.13100
F1082       F  0.54750386  0.06461154  0.93315815    -0.13600
F1083       F  0.57523918  0.07064091  0.01975802    -0.15900
F1084       F  0.55623333  0.11409351  0.92744008    -0.14400
F1085       F  0.61714939  0.14415721  0.96975321    -0.14500
F1086       F  0.52834070  0.19809428  0.95082051    -0.15900
C1087       C  0.99666012  0.14172495  0.53901096     0.14200
C1088       C  0.02163136  0.14445277  0.54868069     0.01200
C1089       C  0.03657479  0.12283258  0.55285519     0.16100
C1090       C  0.02710769  0.09901432  0.54706479     0.25500
C1091       C  0.00225597  0.09601808  0.53673422    -0.40800
C1092       C  0.98704671  0.11779057  0.53308091     0.32600
C1093       C  0.03250842  0.16964992  0.55439261     0.01200
F1094       F  0.06088615  0.12484032  0.56179667    -0.13100
F1095       F  0.96309856  0.11606329  0.52321405    -0.13600
C1096       C  0.03940695  0.17621962  0.57927238     0.16100
C1097       C  0.05176821  0.19886058  0.58457112     0.25500
C1098       C  0.05762624  0.21558625  0.56507124    -0.40700
C1099       C  0.05016410  0.20923368  0.54018202     0.32500
C1100       C  0.03786394  0.18645743  0.53492229     0.14200
F1101       F  0.03437599  0.16048624  0.59850823    -0.13100
F1102       F  0.05594321  0.22441498  0.52071490    -0.13600
F1103       F  0.05791694  0.20442362  0.60892768    -0.15900
F1104       F  0.03237217  0.18022680  0.51060656    -0.14400
F1105       F  0.98156372  0.16228523  0.53533600    -0.14500
F1106       F  0.04289067  0.07895809  0.55085489    -0.15900
C1107       C  0.44348977  0.98152859  0.88457135     0.14200
C1108       C  0.43315423  0.00592002  0.88233395     0.01200
C1109       C  0.42593470  0.01899777  0.90445320     0.16100
C1110       C  0.43225246  0.00937794  0.92821996     0.25500
C1111       C  0.44585051  0.98639044  0.93021387    -0.40800
C1112       C  0.44895822  0.97156288  0.90829902     0.32600
C1113       C  0.43232437  0.01835143  0.85727366     0.01200
F1114       F  0.41437169  0.04190841  0.90308492    -0.13100
F1115       F  0.46045914  0.94862213  0.90954892    -0.13600
C1116       C  0.42199620  0.00601557  0.83594157     0.16100
C1117       C  0.42318900  0.01686274  0.81202394     0.25500
C1118       C  0.43406510  0.04053790  0.80909777    -0.40700
C1119       C  0.44389600  0.05315125  0.83036542     0.32500
C1120       C  0.44335157  0.04208846  0.85416671     0.14200
F1121       F  0.41003069  0.98377530  0.83838860    -0.13100
F1122       F  0.45410088  0.07625965  0.82802809    -0.13600
F1123       F  0.41261221  0.00477434  0.79190528    -0.15900
F1124       F  0.45394230  0.05453451  0.87407250    -0.14400
F1125       F  0.45093178  0.96826894  0.86382830    -0.14500
F1126       F  0.42771060  0.02399128  0.94893192    -0.15900
C1127       C  0.13451288  0.44682933  0.00773992     0.14200
C1128       C  0.13864559  0.42868919  0.98865784     0.01200
C1129       C  0.11737629  0.41563362  0.97905727     0.16100
C1130       C  0.09247066  0.42184213  0.98692716     0.25500
C1131       C  0.08808452  0.44125530  0.00479939    -0.40800
C1132       C  0.10963503  0.45295065  0.01581170     0.32600
C1133       C  0.16459889  0.42494145  0.97722556     0.01200
F1134       F  0.12063660  0.39727751  0.96135173    -0.13100
F1135       F  0.10670552  0.47147660  0.03337684    -0.13600
C1136       C  0.18647527  0.41956821  0.99213552     0.16100
C1137       C  0.21076333  0.41678802  0.98099137     0.25500
C1138       C  0.21355269  0.41895263  0.95471502    -0.40700
C1139       C  0.19170488  0.42411016  0.93989163     0.32500
C1140       C  0.16766494  0.42738763  0.95098474     0.14200
F1141       F  0.18421876  0.41627901  0.01738425    -0.13100
F1142       F  0.19371572  0.42632136  0.91447303    -0.13600
F1143       F  0.23131684  0.41091691  0.99570533    -0.15900
F1144       F  0.14736556  0.43345778  0.93599814    -0.14400
F1145       F  0.15445099  0.45990263  0.01745176    -0.14500
F1146       F  0.07259275  0.40958074  0.97601207    -0.15900
C1147       C  0.16400383  0.27363809  0.63504201     0.14200
C1148       C  0.16406304  0.25424707  0.65278563     0.01200
C1149       C  0.14391424  0.23712698  0.65224522     0.16100
C1150       C  0.12442154  0.23893366  0.63396603     0.25500
C1151       C  0.12462984  0.25792552  0.61557963    -0.40800
C1152       C  0.14456305  0.27551849  0.61671134     0.32600
C1153       C  0.18480361  0.25222353  0.67219351     0.01200
F1154       F  0.14282805  0.21885811  0.66981726    -0.13100
F1155       F  0.14574329  0.29433277  0.59976961    -0.13600
C1156       C  0.18903106  0.27201595  0.68930168     0.16100
C1157       C  0.20819518  0.27021897  0.70782656     0.25500
C1158       C  0.22375132  0.24836091  0.70994797    -0.40700
C1159       C  0.21962911  0.22861187  0.69243436     0.32500
C1160       C  0.20035915  0.23055302  0.67384261     0.14200
F1161       F  0.17412629  0.29305094  0.68845779    -0.13100
F1162       F  0.23393726  0.20721771  0.69335184    -0.13600
F1163       F  0.21132418  0.29014937  0.72365934    -0.15900
F1164       F  0.19703268  0.21128879  0.65721954    -0.14400
F1165       F  0.18317278  0.29053198  0.63510260    -0.14500
F1166       F  0.10513147  0.22222523  0.63465827    -0.15900
C1167       C  0.33847475  0.18864438  0.77026306     0.14200
C1168       C  0.33735145  0.16748767  0.75442313     0.01200
C1169       C  0.31693703  0.16533281  0.73715271     0.16100
C1170       C  0.29779047  0.18404055  0.73583102     0.25500
C1171       C  0.29878529  0.20546392  0.75172448    -0.40800
C1172       C  0.31958456  0.20741594  0.76894615     0.32600
C1173       C  0.35718034  0.14740038  0.75646796     0.01200
F1174       F  0.31523616  0.14473457  0.72197037    -0.13100
F1175       F  0.32204073  0.22762136  0.78454965    -0.13600
C1176       C  0.35925012  0.13312758  0.77848780     0.16100
C1177       C  0.37744944  0.11372792  0.78036499     0.25500
C1178       C  0.39418367  0.10816491  0.76015979    -0.40700
C1179       C  0.39260291  0.12325227  0.73843574     0.32500
C1180       C  0.37421989  0.14255799  0.73662198     0.14200
F1181       F  0.34316576  0.13763440  0.79806002    -0.13100
F1182       F  0.40893778  0.11956610  0.71892317    -0.13600
F1183       F  0.37812626  0.10011988  0.80186662    -0.15900
F1184       F  0.37326079  0.15680145  0.71555866    -0.14400
F1185       F  0.35815077  0.19127122  0.78694549    -0.14500
F1186       F  0.27809077  0.18080427  0.71933700    -0.15900
C1187       C  0.26533073  0.29380995  0.83341635     0.14200
C1188       C  0.26134753  0.31913922  0.82745837     0.01200
C1189       C  0.25709723  0.32586311  0.80221551     0.16100
C1190       C  0.25665113  0.30745143  0.78314445     0.25500
C1191       C  0.26074904  0.28202876  0.78902922    -0.40800
C1192       C  0.26522977  0.27539998  0.81435377     0.32600
C1193       C  0.26112758  0.33846110  0.84771860     0.01200
F1194       F  0.25333370  0.35028006  0.79608430    -0.13100
F1195       F  0.26884014  0.25102205  0.82074483    -0.13600
C1196       C  0.28335321  0.35163363  0.85388987     0.16100
C1197       C  0.28328845  0.36944921  0.87357557     0.25500
C1198       C  0.26080392  0.37452356  0.88753127    -0.40700
C1199       C  0.23841994  0.36127951  0.88082422     0.32500
C1200       C  0.23869320  0.34346290  0.86120487     0.14200
F1201       F  0.30524233  0.34703994  0.84093179    -0.13100
F1202       F  0.21607179  0.36540775  0.89313146    -0.13600
F1203       F  0.30538628  0.38150466  0.87893391    -0.15900
F1204       F  0.21694531  0.33099792  0.85532060    -0.14400
F1205       F  0.26921615  0.28693865  0.85776116    -0.14500
F1206       F  0.25291488  0.31455600  0.75884510    -0.15900
C1207       C  0.87597557  0.51775752  0.99651012     0.14200
C1208       C  0.87256538  0.54163478  0.98603172     0.01200
C1209       C  0.89348970  0.55794434  0.98588845     0.16100
C1210       C  0.91768570  0.54993486  0.99468815     0.25500
C1211       C  0.92141704  0.52548312  0.00401372    -0.40800
C1212       C  0.89993475  0.50985722  0.00567469     0.32600
C1213       C  0.84761584  0.54857371  0.97384940     0.01200
F1214       F  0.89060481  0.58147945  0.97672026    -0.13100
F1215       F  0.90232995  0.48615923  0.01452752    -0.13600
C1216       C  0.82463921  0.54777645  0.98746665     0.16100
C1217       C  0.80098274  0.55196766  0.97535808     0.25500
C1218       C  0.79980271  0.55738078  0.94942293    -0.40700
C1219       C  0.82281998  0.55860775  0.93590971     0.32500
C1220       C  0.84642903  0.55411825  0.94795162     0.14200
F1221       F  0.82513603  0.54297681  0.01257946    -0.13100
F1222       F  0.82240973  0.56305643  0.91072200    -0.13600
F1223       F  0.77923955  0.55118348  0.98911586    -0.15900
F1224       F  0.86810335  0.55413181  0.93403132    -0.14400
F1225       F  0.85637291  0.50138677  0.99633334    -0.14500
F1226       F  0.93760730  0.56589067  0.99345683    -0.15900
C1227       C  0.97995945  0.88902201  0.57106675     0.14200
C1228       C  0.95631987  0.87983418  0.56243622     0.01200
C1229       C  0.94049700  0.89522182  0.54756059     0.16100
C1230       C  0.94881416  0.91869595  0.53993962     0.25500
C1231       C  0.97330956  0.92725812  0.54683145    -0.40800
C1232       C  0.98844834  0.91260837  0.56329793     0.32600
C1233       C  0.94834926  0.85384533  0.56772710     0.01200
F1234       F  0.91725547  0.88707394  0.53965730    -0.13100
F1235       F  0.01220086  0.92014518  0.57021295    -0.13600
C1236       C  0.93896569  0.84763603  0.59148903     0.16100
C1237       C  0.92924108  0.82373273  0.59574224     0.25500
C1238       C  0.92866180  0.80540758  0.57621718    -0.40700
C1239       C  0.93886192  0.81156562  0.55256666     0.32500
C1240       C  0.94846887  0.83557853  0.54837493     0.14200
F1241       F  0.93854764  0.86500731  0.61042332    -0.13100
F1242       F  0.93875486  0.79471463  0.53316887    -0.13600
F1243       F  0.92052842  0.81860134  0.61913595    -0.15900
F1244       F  0.95758175  0.84119010  0.52522562    -0.14400
F1245       F  0.99540290  0.87454705  0.58579411    -0.14500
F1246       F  0.93331304  0.93263932  0.52474587    -0.15900
C1247       C  0.75938814  0.66674263  0.81523945     0.14200
C1248       C  0.73980571  0.66441297  0.83296894     0.01200
C1249       C  0.71898697  0.68135276  0.83208739     0.16100
C1250       C  0.71809332  0.70066353  0.81425753     0.25500
C1251       C  0.73811757  0.70355993  0.79675180    -0.40800
C1252       C  0.75862775  0.68595252  0.79744306     0.32600
C1253       C  0.74156784  0.64454395  0.85252795     0.01200
F1254       F  0.69972506  0.67958964  0.84896352    -0.13100
F1255       F  0.77834487  0.68722533  0.78106988    -0.13600
C1256       C  0.76261348  0.64353584  0.86919562     0.16100
C1257       C  0.76513567  0.62427770  0.88686186     0.25500
C1258       C  0.74661315  0.60535793  0.88834417    -0.40700
C1259       C  0.72516625  0.60680815  0.87190188     0.32500
C1260       C  0.72275080  0.62613218  0.85424034     0.14200
F1261       F  0.78073075  0.66147932  0.86853696    -0.13100
F1262       F  0.70660319  0.58930797  0.87242962    -0.13600
F1263       F  0.78568685  0.62448072  0.90268806    -0.15900
F1264       F  0.70231109  0.62641859  0.83826087    -0.14400
F1265       F  0.77933483  0.65015578  0.81503937    -0.14500
F1266       F  0.69757547  0.71651805  0.81432806    -0.15900
C1267       C  0.84940094  0.77068208  0.66294840     0.14200
C1268       C  0.83391151  0.74952159  0.66476653     0.01200
C1269       C  0.83643010  0.73025499  0.64659621     0.16100
C1270       C  0.85398132  0.73220774  0.62684867     0.25500
C1271       C  0.86948331  0.75356276  0.62481651    -0.40800
C1272       C  0.86682675  0.77278485  0.64322955     0.32600
C1273       C  0.81447354  0.74816877  0.68505115     0.01200
F1274       F  0.82133973  0.70980168  0.64755118    -0.13100
F1275       F  0.88126541  0.79366806  0.64253472    -0.13600
C1276       C  0.79564429  0.76704334  0.68734473     0.16100
C1277       C  0.77730505  0.76617235  0.70636483     0.25500
C1278       C  0.77712049  0.74620157  0.72367592    -0.40700
C1279       C  0.79625439  0.72729368  0.72133668     0.32500
C1280       C  0.81466146  0.72832622  0.70224704     0.14200
F1281       F  0.79469828  0.78625921  0.67076400    -0.13100
F1282       F  0.79736584  0.70770662  0.73740101    -0.13600
F1283       F  0.75968481  0.78506312  0.70749739    -0.15900
F1284       F  0.83298887  0.71008198  0.70084164    -0.14400
F1285       F  0.84785169  0.78934390  0.68054872    -0.14500
F1286       F  0.85524744  0.71337118  0.60943185    -0.15900
C1287       C  0.51706179  0.96161196  0.80820050     0.14200
C1288       C  0.53761393  0.97254855  0.82148989     0.01200
C1289       C  0.56208717  0.97145264  0.81068897     0.16100
C1290       C  0.56651643  0.95742487  0.78863942     0.25500
C1291       C  0.54639060  0.94491673  0.77634375    -0.40800
C1292       C  0.52140825  0.94806523  0.78565087     0.32600
C1293       C  0.53465691  0.98160866  0.84808881     0.01200
F1294       F  0.58204717  0.98300662  0.82226550    -0.13100
F1295       F  0.50153969  0.93636313  0.77410984    -0.13600
C1296       C  0.55010972  0.97086637  0.86707246     0.16100
C1297       C  0.54723027  0.97791549  0.89235816     0.25500
C1298       C  0.52836199  0.99563280  0.89961602    -0.40700
C1299       C  0.51314556  0.00681839  0.88054249     0.32500
C1300       C  0.51627318  0.99989353  0.85503520     0.14200
F1301       F  0.56733061  0.95243478  0.86128055    -0.13100
F1302       F  0.49481645  0.02404040  0.88658539    -0.13600
F1303       F  0.56226355  0.96630840  0.90981614    -0.15900
F1304       F  0.50124563  0.01094143  0.83720494    -0.14400
F1305       F  0.49314475  0.96239609  0.81796426    -0.14500
F1306       F  0.59071286  0.95548912  0.77968663    -0.15900
C1307       C  0.61622862  0.83151499  0.73926251     0.14200
C1308       C  0.63814215  0.83794557  0.75341267     0.01200
C1309       C  0.63997249  0.86259289  0.76299606     0.16100
C1310       C  0.62032414  0.88029542  0.75866915     0.25500
C1311       C  0.59835928  0.87389918  0.74449754    -0.40800
C1312       C  0.59663518  0.84925546  0.73476969     0.32600
C1313       C  0.65931931  0.81918721  0.75749942     0.01200
F1314       F  0.66072811  0.86948347  0.77684875    -0.13100
F1315       F  0.57566959  0.84210883  0.72140024    -0.13600
C1316       C  0.68426990  0.82419745  0.74946900     0.16100
C1317       C  0.70388918  0.80617280  0.75195363     0.25500
C1318       C  0.69913027  0.78245705  0.76235648    -0.40700
C1319       C  0.67432609  0.77781575  0.77131518     0.32500
C1320       C  0.65469357  0.79595756  0.76885103     0.14200
F1321       F  0.68952937  0.84633543  0.73839740    -0.13100
F1322       F  0.66874916  0.75542752  0.78166275    -0.13600
F1323       F  0.72766730  0.81211152  0.74409127    -0.15900
F1324       F  0.63103996  0.79076835  0.77755578    -0.14400
F1325       F  0.61397137  0.80805928  0.72935540    -0.14500
F1326       F  0.62310715  0.90394307  0.76795792    -0.15900
C1327       C  0.47420724  0.31875483  0.05028046     0.14200
C1328       C  0.47800912  0.33467168  0.07124991     0.01200
C1329       C  0.47029624  0.32710524  0.09518030     0.16100
C1330       C  0.45776067  0.30443701  0.09802415     0.25500
C1331       C  0.45283105  0.28887835  0.07692565    -0.40800
C1332       C  0.46172632  0.29597604  0.05306486     0.32600
C1333       C  0.48774525  0.36012015  0.06772067     0.01200
F1334       F  0.47458716  0.34194977  0.11573207    -0.13100
F1335       F  0.45712186  0.28161706  0.03222896    -0.13600
C1336       C  0.47172310  0.38096874  0.07250386     0.16100
C1337       C  0.47911529  0.40491817  0.06551184     0.25500
C1338       C  0.50268696  0.40830816  0.05361844    -0.40700
C1339       C  0.51968724  0.38755551  0.05099246     0.32500
C1340       C  0.51209136  0.36364951  0.05773625     0.14200
F1341       F  0.44807854  0.37786113  0.08223593    -0.13100
F1342       F  0.54300691  0.38991313  0.04021904    -0.13600
F1343       F  0.46245033  0.42440057  0.06879869    -0.15900
F1344       F  0.52807354  0.34377850  0.05347403    -0.14400
F1345       F  0.48139954  0.32589778  0.02691112    -0.14500
F1346       F  0.45046408  0.29772970  0.12148325    -0.15900
C1347       C  0.52766800  0.31480801  0.96739396     0.14200
C1348       C  0.52049857  0.33099140  0.94767747     0.01200
C1349       C  0.52435812  0.32312357  0.92260326     0.16100
C1350       C  0.53641546  0.30014058  0.91729151     0.25500
C1351       C  0.54465939  0.28432474  0.93696314    -0.40800
C1352       C  0.53942073  0.29153977  0.96207583     0.32600
C1353       C  0.51117043  0.35689138  0.95312169     0.01200
F1354       F  0.51703470  0.33810125  0.90320057    -0.13100
F1355       F  0.54726968  0.27693354  0.98155199    -0.13600
C1356       C  0.52469899  0.37735122  0.94388196     0.16100
C1357       C  0.51723020  0.40181497  0.95008447     0.25500
C1358       C  0.49634656  0.40645493  0.96625409    -0.40700
C1359       C  0.48217898  0.38600837  0.97473700     0.32500
C1360       C  0.48948718  0.36143753  0.96809724     0.14200
F1361       F  0.54615387  0.37365092  0.92998255    -0.13100
F1362       F  0.46240752  0.38960631  0.99088127    -0.13600
F1363       F  0.53152441  0.42091239  0.94139823    -0.15900
F1364       F  0.47573017  0.34203177  0.97676509    -0.14400
F1365       F  0.52482728  0.32222348  0.99183150    -0.14500
F1366       F  0.54042245  0.29354538  0.89279923    -0.15900
C1367       C  0.69247728  0.45316951  0.03774918     0.14200
C1368       C  0.67719508  0.45859234  0.05889428     0.01200
C1369       C  0.68576334  0.45091149  0.08284758     0.16100
C1370       C  0.70845061  0.43692109  0.08544383     0.25500
C1371       C  0.72320505  0.43050925  0.06413322    -0.40800
C1372       C  0.71532617  0.43938537  0.04034021     0.32600
C1373       C  0.65092325  0.46905360  0.05544272     0.01200
F1374       F  0.67171051  0.45635528  0.10369007    -0.13100
F1375       F  0.72880721  0.43332546  0.01929364    -0.13600
C1376       C  0.62998836  0.45492691  0.06300301     0.16100
C1377       C  0.60511802  0.46241832  0.05679347     0.25500
C1378       C  0.60043530  0.48393581  0.04204393    -0.40700
C1379       C  0.62137258  0.49906773  0.03591188     0.32500
C1380       C  0.64638208  0.49173594  0.04277352     0.14200
F1381       F  0.63364507  0.43277805  0.07498138    -0.13100
F1382       F  0.61790514  0.52027105  0.02230167    -0.13600
F1383       F  0.58574855  0.44750185  0.06404595    -0.15900
F1384       F  0.66626101  0.50644316  0.03654291    -0.14400
F1385       F  0.68442494  0.45973371  0.01429872    -0.14500
F1386       F  0.71583709  0.42945810  0.10884180    -0.15900
C1387       C  0.63568503  0.47450536  0.96050580     0.14200
C1388       C  0.63846196  0.49613138  0.94591948     0.01200
C1389       C  0.61624201  0.50831261  0.93667616     0.16100
C1390       C  0.59190109  0.49983918  0.94278833     0.25500
C1391       C  0.58904878  0.47965576  0.95920421    -0.40800
C1392       C  0.61131779  0.46646943  0.96732308     0.32600
C1393       C  0.66418845  0.50686642  0.94117156     0.01200
F1394       F  0.61798437  0.52946080  0.92286786    -0.13100
F1395       F  0.60976035  0.44648976  0.98289559    -0.13600
C1396       C  0.67103873  0.51381691  0.91665153     0.16100
C1397       C  0.69326744  0.52740818  0.91254615     0.25500
C1398       C  0.70972912  0.53370781  0.93276233    -0.40700
C1399       C  0.70389567  0.52519477  0.95706640     0.32500
C1400       C  0.68119661  0.51218998  0.96128314     0.14200
F1401       F  0.65593710  0.50772140  0.89658993    -0.13100
F1402       F  0.71933961  0.53075843  0.97703072    -0.13600
F1403       F  0.69865379  0.53444593  0.88865561    -0.15900
F1404       F  0.67519252  0.50608912  0.98527074    -0.14400
F1405       F  0.65658349  0.46136926  0.96855669    -0.14500
F1406       F  0.57109172  0.51222086  0.93352512    -0.15900
C1407       C  0.55073102  0.67367039  0.02776092     0.14200
C1408       C  0.54507030  0.65836433  0.04840311     0.01200
C1409       C  0.54997543  0.66732186  0.07291138     0.16100
C1410       C  0.56111819  0.69071832  0.07680770     0.25500
C1411       C  0.56800165  0.70574076  0.05621145    -0.40800
C1412       C  0.56211428  0.69715084  0.03160093     0.32600
C1413       C  0.53563723  0.63244399  0.04441834     0.01200
F1414       F  0.54419667  0.65319762  0.09318984    -0.13100
F1415       F  0.56855449  0.71078712  0.01120299    -0.13600
C1416       C  0.55052024  0.61186563  0.05239730     0.16100
C1417       C  0.54280278  0.58737299  0.04707004     0.25500
C1418       C  0.52016725  0.58281041  0.03312069    -0.40700
C1419       C  0.50456368  0.60352289  0.02633039     0.32500
C1420       C  0.51213213  0.62806769  0.03229593     0.14200
F1421       F  0.57312331  0.61548739  0.06461150    -0.13100
F1422       F  0.48248729  0.60018634  0.01312875    -0.13600
F1423       F  0.55810320  0.56815150  0.05490323    -0.15900
F1424       F  0.49651473  0.64768875  0.02639206    -0.14400
F1425       F  0.54639870  0.66531775  0.00381718    -0.14500
F1426       F  0.56522439  0.69857396  0.10093679    -0.15900
C1427       C  0.48711832  0.59037896  0.93077867     0.14200
C1428       C  0.49985289  0.61240421  0.93783779     0.01200
C1429       C  0.52322654  0.61065411  0.95096696     0.16100
C1430       C  0.53300975  0.58738228  0.95826564     0.25500
C1431       C  0.51958269  0.56530964  0.95249958    -0.40800
C1432       C  0.49692673  0.56699134  0.93796586     0.32600
C1433       C  0.48766634  0.63720835  0.93373735     0.01200
F1434       F  0.53605239  0.63166184  0.95774439    -0.13100
F1435       F  0.48354161  0.54615802  0.93173815    -0.13600
C1436       C  0.48242415  0.65290681  0.95454503     0.16100
C1437       C  0.47057083  0.67622023  0.95126024     0.25500
C1438       C  0.46329689  0.68416802  0.92699309    -0.40700
C1439       C  0.46840041  0.66832505  0.90607623     0.32500
C1440       C  0.48062736  0.64508201  0.90944536     0.14200
F1441       F  0.48806351  0.64521494  0.97823429    -0.13100
F1442       F  0.46197977  0.67546485  0.88231470    -0.13600
F1443       F  0.46530399  0.69053011  0.97199063    -0.15900
F1444       F  0.48584838  0.63036903  0.88899453    -0.14400
F1445       F  0.46429349  0.59159637  0.91840760    -0.14500
F1446       F  0.55462919  0.58678042  0.97264524    -0.15900
C1447       C  0.39283498  0.53807120  0.05864931     0.14200
C1448       C  0.37210602  0.52184810  0.05529508     0.01200
C1449       C  0.37699363  0.49705985  0.04725153     0.16100
C1450       C  0.40186700  0.48909616  0.04104164     0.25500
C1451       C  0.42252082  0.50580801  0.04278810    -0.40800
C1452       C  0.41773250  0.53015940  0.05260430     0.32600
C1453       C  0.34537594  0.53138249  0.05847197     0.01200
F1454       F  0.35748646  0.48067413  0.04483789    -0.13100
F1455       F  0.43692310  0.54688106  0.05528039    -0.13600
C1456       C  0.32794737  0.53060519  0.03807163     0.16100
C1457       C  0.30357508  0.54173412  0.04010133     0.25500
C1458       C  0.29617937  0.55412767  0.06254479    -0.40700
C1459       C  0.31326733  0.55386044  0.08333519     0.32500
C1460       C  0.33756571  0.54266599  0.08128365     0.14200
F1461       F  0.33502093  0.52020183  0.01565477    -0.13100
F1462       F  0.30653274  0.56452361  0.10575636    -0.13600
F1463       F  0.28782245  0.54154426  0.01960022    -0.15900
F1464       F  0.35359587  0.54305434  0.10158347    -0.14400
F1465       F  0.38880312  0.56216030  0.06637114    -0.14500
F1466       F  0.40538947  0.46534830  0.03214888    -0.15900
C1467       C  0.40006516  0.46079256  0.94721029     0.14200
C1468       C  0.37800167  0.47521960  0.95251387     0.01200
C1469       C  0.38103698  0.49963906  0.96226444     0.16100
C1470       C  0.40559641  0.50914599  0.96727005     0.25500
C1471       C  0.42783815  0.49438310  0.96267279    -0.40800
C1472       C  0.42458354  0.47019565  0.95215400     0.32600
C1473       C  0.35204192  0.46449511  0.94776741     0.01200
F1474       F  0.36016684  0.51436257  0.96685148    -0.13100
F1475       F  0.44514511  0.45534328  0.94682174    -0.13600
C1476       C  0.33531027  0.45968637  0.96780174     0.16100
C1477       C  0.31206978  0.44720450  0.96341990     0.25500
C1478       C  0.30506343  0.43922859  0.93886569    -0.40700
C1479       C  0.32142691  0.44507607  0.91875633     0.32500
C1480       C  0.34453947  0.45749011  0.92317584     0.14200
F1481       F  0.34200332  0.46610371  0.99180149    -0.13100
F1482       F  0.31501646  0.43890974  0.89459976    -0.13600
F1483       F  0.29706376  0.44188080  0.98337792    -0.15900
F1484       F  0.35975379  0.46261917  0.90331001    -0.14400
F1485       F  0.39783638  0.43712535  0.93783735    -0.14500
F1486       F  0.40743713  0.53257678  0.97732993    -0.15900
C1487       C  0.08970536  0.47871614  0.33551615     0.14200
C1488       C  0.06447648  0.48521857  0.34179975     0.01200
C1489       C  0.04460856  0.48020855  0.32459491     0.16100
C1490       C  0.04984106  0.46828864  0.30151868     0.25500
C1491       C  0.07508727  0.46096326  0.29541750    -0.40800
C1492       C  0.09501965  0.46680594  0.31249485     0.32600
C1493       C  0.05856950  0.49505744  0.36721117     0.01200
F1494       F  0.01996669  0.48559936  0.33079344    -0.13100
F1495       F  0.11969400  0.46086294  0.30702828    -0.13600
C1496       C  0.04752017  0.51899538  0.37060025     0.16100
C1497       C  0.03955166  0.52705267  0.39454754     0.25500
C1498       C  0.04228014  0.51106489  0.41532401    -0.40700
C1499       C  0.05504007  0.48765614  0.41197129     0.32500
C1500       C  0.06277884  0.47971586  0.38812526     0.14200
F1501       F  0.04380515  0.53424301  0.35055238    -0.13100
F1502       F  0.05885537  0.47155659  0.43140115    -0.13600
F1503       F  0.02820671  0.54996271  0.39712644    -0.15900
F1504       F  0.07298230  0.45629519  0.38523184    -0.14400
F1505       F  0.10913411  0.48347731  0.35198496    -0.14500
F1506       F  0.02998648  0.46267724  0.28587814    -0.15900
C1507       C  0.95329469  0.49401902  0.37859667     0.14200
C1508       C  0.94049989  0.51633689  0.37244988     0.01200
C1509       C  0.93255630  0.53278316  0.39184051     0.16100
C1510       C  0.93926215  0.52804023  0.41703854     0.25500
C1511       C  0.95381309  0.50659616  0.42320167    -0.40800
C1512       C  0.95963150  0.48895248  0.40371293     0.32600
C1513       C  0.93780383  0.52383542  0.34581110     0.01200
F1514       F  0.91967757  0.55426070  0.38613030    -0.13100
F1515       F  0.97334967  0.46766382  0.40845487    -0.13600
C1516       C  0.91465622  0.52055458  0.33273922     0.16100
C1517       C  0.91135464  0.53036874  0.30850282     0.25500
C1518       C  0.93133526  0.54319161  0.29689514    -0.40700
C1519       C  0.95491791  0.54541343  0.30956690     0.32500
C1520       C  0.95810776  0.53582227  0.33391125     0.14200
F1521       F  0.89512828  0.50836196  0.34371198    -0.13100
F1522       F  0.97424728  0.55830547  0.29907608    -0.13600
F1523       F  0.88850826  0.52773142  0.29647962    -0.15900
F1524       F  0.98063693  0.53915704  0.34636518    -0.14400
F1525       F  0.96092341  0.47777814  0.36010170    -0.14500
F1526       F  0.93284434  0.54514260  0.43513253    -0.15900
C1527       C  0.03652462  0.50423360  0.63591564     0.14200
C1528       C  0.05979663  0.51677604  0.63906027     0.01200
C1529       C  0.07549034  0.52021865  0.61797690     0.16100
C1530       C  0.06686967  0.51350835  0.59383691     0.25500
C1531       C  0.04274183  0.50262766  0.59055209    -0.40800
C1532       C  0.02821314  0.49690915  0.61184879     0.32600
C1533       C  0.06601100  0.52923038  0.66342731     0.01200
F1534       F  0.09845961  0.53155145  0.62062204    -0.13100
F1535       F  0.00461917  0.48690030  0.60913556    -0.13600
C1536       C  0.06729309  0.51573185  0.68607389     0.16100
C1537       C  0.07247908  0.52812532  0.70901671     0.25500
C1538       C  0.07673845  0.55409590  0.70947489    -0.40700
C1539       C  0.07519639  0.56751422  0.68683206     0.32500
C1540       C  0.06965266  0.55527403  0.66411337     0.14200
F1541       F  0.06406621  0.49052568  0.68585154    -0.13100
F1542       F  0.07855624  0.59270671  0.68676897    -0.13600
F1543       F  0.07430975  0.51464904  0.73054838    -0.15900
F1544       F  0.06728780  0.56902322  0.64277460    -0.14400
F1545       F  0.02068084  0.50126645  0.65576960    -0.14500
F1546       F  0.08134927  0.51906250  0.57353767    -0.15900
C1547       C  0.93630919  0.46046391  0.60764605     0.14200
C1548       C  0.93549479  0.47691951  0.62855436     0.01200
C1549       C  0.94046991  0.50237282  0.62493902     0.16100
C1550       C  0.94742329  0.51102882  0.60109198     0.25500
C1551       C  0.94995474  0.49428428  0.58028274    -0.40800
C1552       C  0.94350169  0.46897316  0.58378971     0.32600
C1553       C  0.93056130  0.46709281  0.65420537     0.01200
F1554       F  0.93919801  0.51878075  0.64469659    -0.13100
F1555       F  0.94590719  0.45196764  0.56467567    -0.13600
C1556       C  0.95006713  0.46652661  0.67265498     0.16100
C1557       C  0.94642576  0.45438089  0.69571390     0.25500
C1558       C  0.92309109  0.44255788  0.70080428    -0.40700
C1559       C  0.90303092  0.44476336  0.68281682     0.32500
C1560       C  0.90685397  0.45668735  0.65977989     0.14200
F1561       F  0.97312538  0.47668799  0.66783165    -0.13100
F1562       F  0.87962391  0.43515643  0.68726298    -0.13600
F1563       F  0.96619334  0.45329582  0.71246369    -0.15900
F1564       F  0.88741330  0.45776863  0.64265517    -0.14400
F1565       F  0.93160989  0.43572676  0.61070136    -0.14500
F1566       F  0.95288059  0.53569356  0.59874207    -0.15900
C1567       C  0.07108060  0.39807356  0.53138325     0.14200
C1568       C  0.06613200  0.37773648  0.51494806     0.01200
C1569       C  0.05524045  0.38278731  0.49110449     0.16100
C1570       C  0.04823437  0.40747317  0.48453466     0.25500
C1571       C  0.05226317  0.42775946  0.50167998    -0.40800
C1572       C  0.06455737  0.42265713  0.52472003     0.32600
C1573       C  0.07145954  0.35150320  0.52358196     0.01200
F1574       F  0.05094484  0.36378618  0.47434813    -0.13100
F1575       F  0.06897787  0.44140687  0.54163268    -0.13600
C1576       C  0.05206827  0.33344171  0.52375956     0.16100
C1577       C  0.05614372  0.31011469  0.53535900     0.25500
C1578       C  0.07971226  0.30433298  0.54727487    -0.40700
C1579       C  0.09945692  0.32202331  0.54592362     0.32500
C1580       C  0.09542792  0.34511222  0.53407736     0.14200
F1581       F  0.02865790  0.33883830  0.51390248    -0.13100
F1582       F  0.12284117  0.31713587  0.55616498    -0.13600
F1583       F  0.03649737  0.29379208  0.53604178    -0.15900
F1584       F  0.11499258  0.36152344  0.53321321    -0.14400
F1585       F  0.08088898  0.39404345  0.55479166    -0.14500
F1586       F  0.03627555  0.41113766  0.46195786    -0.15900
C1587       C  0.97063626  0.37090267  0.50426818     0.14200
C1588       C  0.95675215  0.36925379  0.48144480     0.01200
C1589       C  0.94823544  0.39131471  0.46975738     0.16100
C1590       C  0.95410722  0.41457673  0.48018078     0.25500
C1591       C  0.96974962  0.41641165  0.50198850    -0.40800
C1592       C  0.97743050  0.39431205  0.51432282     0.32600
C1593       C  0.95188616  0.34471064  0.46914314     0.01200
F1594       F  0.93536191  0.39044200  0.44738899    -0.13100
F1595       F  0.99263616  0.39523133  0.53520726    -0.13600
C1596       C  0.92689461  0.33805129  0.46215873     0.16100
C1597       C  0.92240389  0.31556783  0.44920255     0.25500
C1598       C  0.94280707  0.29906607  0.44333292    -0.40700
C1599       C  0.96783848  0.30572087  0.45044947     0.32500
C1600       C  0.97234714  0.32846239  0.46299622     0.14200
F1601       F  0.90676301  0.35335081  0.46797385    -0.13100
F1602       F  0.98810125  0.29071544  0.44436242    -0.13600
F1603       F  0.89798225  0.30977666  0.44283739    -0.15900
F1604       F  0.99681443  0.33508533  0.46823222    -0.14400
F1605       F  0.97796695  0.34978728  0.51654804    -0.14500
F1606       F  0.94546216  0.43535059  0.46798080    -0.15900
C1607       C  0.96699209  0.64195962  0.50594109     0.14200
C1608       C  0.94390597  0.64458341  0.51931589     0.01200
C1609       C  0.92898259  0.62311784  0.52267211     0.16100
C1610       C  0.93818945  0.59932442  0.51541394     0.25500
C1611       C  0.96219920  0.59644941  0.50383639    -0.40800
C1612       C  0.97587289  0.61815355  0.49798407     0.32600
C1613       C  0.93660145  0.66877955  0.53219908     0.01200
F1614       F  0.90588502  0.62507043  0.53410549    -0.13100
F1615       F  0.99899612  0.61616327  0.48665549    -0.13600
C1616       C  0.93502250  0.69166499  0.51916414     0.16100
C1617       C  0.92796099  0.71403627  0.53187257     0.25500
C1618       C  0.92193509  0.71388836  0.55776487    -0.40700
C1619       C  0.92384089  0.69104819  0.57073312     0.32500
C1620       C  0.93136194  0.66895121  0.55823473     0.14200
F1621       F  0.93965001  0.69229216  0.49400834    -0.13100
F1622       F  0.91905573  0.69013574  0.59585867    -0.13600
F1623       F  0.92617536  0.73564625  0.51865343    -0.15900
F1624       F  0.93405746  0.64765767  0.57185795    -0.14400
F1625       F  0.98199539  0.66212048  0.50234060    -0.14500
F1626       F  0.92407467  0.57891490  0.52072393    -0.15900
C1627       C  0.09621472  0.66272637  0.45346079     0.14200
C1628       C  0.07266520  0.65695285  0.46429235     0.01200
C1629       C  0.05306596  0.67533911  0.46445722     0.16100
C1630       C  0.05681369  0.69889836  0.45359190     0.25500
C1631       C  0.08027874  0.70456380  0.44223782    -0.40800
C1632       C  0.10002117  0.68619329  0.44260031     0.32600
C1633       C  0.06827994  0.63158006  0.47481406     0.01200
F1634       F  0.02991283  0.67012740  0.47434493    -0.13100
F1635       F  0.12324345  0.69094804  0.43260691    -0.13600
C1636       C  0.06209914  0.62877507  0.50034457     0.16100
C1637       C  0.05553539  0.60526627  0.50970557     0.25500
C1638       C  0.05470741  0.58391163  0.49361621    -0.40700
C1639       C  0.06269819  0.58654832  0.46841787     0.32500
C1640       C  0.06934784  0.61011482  0.45915663     0.14200
F1641       F  0.06182165  0.64901014  0.51613841    -0.13100
F1642       F  0.06249152  0.56671181  0.45215767    -0.13600
F1643       F  0.04878019  0.60376071  0.53433135    -0.15900
F1644       F  0.07536764  0.61221263  0.43440216    -0.14400
F1645       F  0.11567600  0.64560700  0.45353624    -0.14500
F1646       F  0.03707553  0.71570245  0.45324513    -0.15900
C1647       C  0.50171071  0.01282366  0.63796174     0.14200
C1648       C  0.48687144  0.03404872  0.64477946     0.01200
C1649       C  0.48117540  0.05194387  0.62619243     0.16100
C1650       C  0.48782602  0.04759142  0.60099903     0.25500
C1651       C  0.50055625  0.02528788  0.59367312    -0.40800
C1652       C  0.50829905  0.00832149  0.61255123     0.32600
C1653       C  0.47511787  0.03683471  0.67032586     0.01200
F1654       F  0.46832167  0.07342266  0.63235091    -0.13100
F1655       F  0.52047544  0.98653427  0.60622203    -0.13600
C1656       C  0.48994221  0.03717803  0.69268378     0.16100
C1657       C  0.47841221  0.04233587  0.71616681     0.25500
C1658       C  0.45198086  0.04759146  0.71756252    -0.40700
C1659       C  0.43712059  0.04601553  0.69539948     0.32500
C1660       C  0.44846220  0.04039738  0.67218036     0.14200
F1661       F  0.51568323  0.03379984  0.69166852    -0.13100
F1662       F  0.41145092  0.05011093  0.69620590    -0.13600
F1663       F  0.49328365  0.04368699  0.73725699    -0.15900
F1664       F  0.43332130  0.03877110  0.65128300    -0.14400
F1665       F  0.50868082  0.99584135  0.65565454    -0.14500
F1666       F  0.48089682  0.06487637  0.58351198    -0.15900
C1667       C  0.48081361  0.93084032  0.60342866     0.14200
C1668       C  0.50519464  0.92338922  0.61248991     0.01200
C1669       C  0.52584884  0.92388136  0.59558281     0.16100
C1670       C  0.52259245  0.93248831  0.57086997     0.25500
C1671       C  0.49876420  0.94198571  0.56244050    -0.40800
C1672       C  0.47769895  0.94030465  0.57881796     0.32600
C1673       C  0.51016807  0.91697323  0.63972735     0.01200
F1674       F  0.54990709  0.91803160  0.60359839    -0.13100
F1675       F  0.45429625  0.94900937  0.57147948    -0.13600
C1676       C  0.52549810  0.89602140  0.64599407     0.16100
C1677       C  0.53539272  0.89302431  0.67049901     0.25500
C1678       C  0.53002042  0.91085280  0.68979180    -0.40700
C1679       C  0.51240793  0.93039797  0.68409513     0.32500
C1680       C  0.50251612  0.93329233  0.65947562     0.14200
F1681       F  0.53151264  0.87857670  0.62806000    -0.13100
F1682       F  0.50534809  0.94747034  0.70203306    -0.13600
F1683       F  0.55084149  0.87288897  0.67497180    -0.15900
F1684       F  0.48631895  0.95278614  0.65480529    -0.14400
F1685       F  0.46007611  0.92963582  0.61857470    -0.14500
F1686       F  0.54361020  0.93390895  0.55612117    -0.15900
C1687       C  0.33764856  0.06174864  0.47800237     0.14200
C1688       C  0.35521466  0.08153998  0.47744362     0.01200
C1689       C  0.34621022  0.10554741  0.47118304     0.16100
C1690       C  0.32047855  0.10960857  0.46461103     0.25500
C1691       C  0.30299582  0.08958430  0.46354799    -0.40800
C1692       C  0.31179622  0.06570260  0.47111296     0.32600
C1693       C  0.38317095  0.07686082  0.48155580     0.01200
F1694       F  0.36255513  0.12508653  0.47094995    -0.13100
F1695       F  0.29584721  0.04586885  0.47042137    -0.13600
C1696       C  0.40016320  0.07806573  0.46116225     0.16100
C1697       C  0.42571164  0.07001648  0.46390133     0.25500
C1698       C  0.43495166  0.06103547  0.48719027    -0.40700
C1699       C  0.41862578  0.06237168  0.50819246     0.32500
C1700       C  0.39287463  0.06985860  0.50532499     0.14200
F1701       F  0.39144900  0.08496390  0.43800776    -0.13100
F1702       F  0.42673625  0.05345191  0.53082676    -0.13600
F1703       F  0.44072433  0.06840618  0.44313826    -0.15900
F1704       F  0.37705267  0.06892487  0.52545273    -0.14400
F1705       F  0.34585361  0.03826549  0.48390727    -0.14500
F1706       F  0.31281728  0.13329355  0.45887376    -0.15900
C1707       C  0.37531893  0.97923863  0.54681783     0.14200
C1708       C  0.36224566  0.95972373  0.53461211     0.01200
C1709       C  0.37415974  0.94674813  0.51456680     0.16100
C1710       C  0.39860093  0.95353742  0.50654600     0.25500
C1711       C  0.41167247  0.97337817  0.51859090    -0.40800
C1712       C  0.39969189  0.98596149  0.53902294     0.32600
C1713       C  0.33655073  0.95264607  0.54360469     0.01200
F1714       F  0.36189096  0.92780289  0.50243305    -0.13100
F1715       F  0.41149711  0.00484429  0.55171689    -0.13600
C1716       C  0.31630861  0.97028249  0.54383367     0.16100
C1717       C  0.29303159  0.96472818  0.55528314     0.25500
C1718       C  0.28958524  0.94138941  0.56691219    -0.40700
C1719       C  0.30953392  0.92328000  0.56537500     0.32500
C1720       C  0.33274141  0.92891603  0.55392799     0.14200
F1721       F  0.31935117  0.99320564  0.53349584    -0.13100
F1722       F  0.30688304  0.90014221  0.57534703    -0.13600
F1723       F  0.27442196  0.98271414  0.55599746    -0.15900
F1724       F  0.35199801  0.91156719  0.55407848    -0.14400
F1725       F  0.36459487  0.99159094  0.56672841    -0.14500
F1726       F  0.40917924  0.94094038  0.48672903    -0.15900
C1727       C  0.55878739  0.05416647  0.33554026     0.14200
C1728       C  0.53191308  0.05326144  0.33450778     0.01200
C1729       C  0.51952701  0.05456237  0.31086549     0.16100
C1730       C  0.53372567  0.05644254  0.28868509     0.25500
C1731       C  0.56056837  0.05744337  0.28975161    -0.40800
C1732       C  0.57295968  0.05643837  0.31340249     0.32600
C1733       C  0.51712136  0.04908052  0.35790814     0.01200
F1734       F  0.49361396  0.05427205  0.30928796    -0.13100
F1735       F  0.59887848  0.05684898  0.31502412    -0.13600
C1736       C  0.51984522  0.06494284  0.37910911     0.16100
C1737       C  0.50925665  0.05843079  0.40231481     0.25500
C1738       C  0.49557584  0.03600755  0.40467714    -0.40700
C1739       C  0.49076328  0.02153693  0.38278741     0.32500
C1740       C  0.50173813  0.02785612  0.35978664     0.14200
F1741       F  0.53360342  0.08624558  0.37756729    -0.13100
F1742       F  0.47737057  0.00001364  0.38397259    -0.13600
F1743       F  0.51343223  0.07344151  0.42276883    -0.15900
F1744       F  0.49902348  0.01209496  0.33976160    -0.14400
F1745       F  0.57139206  0.05198870  0.35794754    -0.14500
F1746       F  0.52117460  0.05806354  0.26620767    -0.15900
C1747       C  0.45642361  0.91142061  0.32266828     0.14200
C1748       C  0.47005091  0.93305363  0.32916301     0.01200
C1749       C  0.47488783  0.95051776  0.31007013     0.16100
C1750       C  0.46485324  0.94723755  0.28550394     0.25500
C1751       C  0.44994339  0.92619173  0.27936930    -0.40800
C1752       C  0.44672867  0.90789338  0.29817660     0.32600
C1753       C  0.47755660  0.93789705  0.35614049     0.01200
F1754       F  0.48837286  0.97139336  0.31543112    -0.13100
F1755       F  0.43393941  0.88644751  0.29306854    -0.13600
C1756       C  0.50317546  0.94173431  0.36335949     0.16100
C1757       C  0.50967052  0.94718357  0.38868082     0.25500
C1758       C  0.49069345  0.94878171  0.40747617    -0.40700
C1759       C  0.46515357  0.94401016  0.40023004     0.32500
C1760       C  0.45871757  0.93882894  0.37495592     0.14200
F1761       F  0.52193114  0.94040938  0.34582947    -0.13100
F1762       F  0.44591877  0.94636902  0.41718312    -0.13600
F1763       F  0.53449592  0.95161060  0.39467363    -0.15900
F1764       F  0.43368980  0.93608372  0.36861494    -0.14400
F1765       F  0.45222484  0.89366081  0.34025387    -0.14500
F1766       F  0.46875478  0.96529612  0.26817388    -0.15900
C1767       C  0.65392215  0.08968641  0.53926193     0.14200
C1768       C  0.64311819  0.06644399  0.53325100     0.01200
C1769       C  0.65856103  0.04466029  0.53521629     0.16100
C1770       C  0.68407262  0.04601712  0.54383410     0.25500
C1771       C  0.69454726  0.06918768  0.55114502    -0.40800
C1772       C  0.67922896  0.09105961  0.54822567     0.32600
C1773       C  0.61536916  0.06460914  0.52658253     0.01200
F1774       F  0.64863690  0.02191672  0.52948080    -0.13100
F1775       F  0.68862914  0.11390787  0.55448091    -0.13600
C1776       C  0.60596092  0.07166377  0.50269661     0.16100
C1777       C  0.58064060  0.06620576  0.49543196     0.25500
C1778       C  0.56410760  0.05393253  0.51206880    -0.40700
C1779       C  0.57288722  0.04958592  0.53691219     0.32500
C1780       C  0.59828796  0.05450628  0.54391672     0.14200
F1781       F  0.62181404  0.08209974  0.48574489    -0.13100
F1782       F  0.55784051  0.03808781  0.55376357    -0.13600
F1783       F  0.57291934  0.07101539  0.47141069    -0.15900
F1784       F  0.60663972  0.04813731  0.56734989    -0.14400
F1785       F  0.63957568  0.11101747  0.53750031    -0.14500
F1786       F  0.69794086  0.02449867  0.54649072    -0.15900
C1787       C  0.62305357  0.94178623  0.47448887     0.14200
C1788       C  0.64050277  0.96149229  0.47186658     0.01200
C1789       C  0.63304013  0.98571449  0.47984575     0.16100
C1790       C  0.60845861  0.99027168  0.48934972     0.25500
C1791       C  0.59053297  0.97094787  0.49048196    -0.40800
C1792       C  0.59818960  0.94656500  0.48330560     0.32600
C1793       C  0.66560285  0.95711667  0.45915420     0.01200
F1794       F  0.64883650  0.00537245  0.47662488    -0.13100
F1795       F  0.58126005  0.92754308  0.48399313    -0.13600
C1796       C  0.66636391  0.94599738  0.43497506     0.16100
C1797       C  0.68972792  0.94095835  0.42315672     0.25500
C1798       C  0.71309277  0.94692972  0.43515266    -0.40700
C1799       C  0.71231770  0.95933928  0.45876026     0.32500
C1800       C  0.68881443  0.96427735  0.47068444     0.14200
F1801       F  0.64435269  0.94016062  0.42259238    -0.13100
F1802       F  0.73430595  0.96565999  0.47087847    -0.13600
F1803       F  0.68939126  0.93031594  0.39975483    -0.15900
F1804       F  0.68881576  0.97522774  0.49394271    -0.14400
F1805       F  0.62983832  0.91799675  0.46773817    -0.14500
F1806       F  0.60142035  0.01410271  0.49520423    -0.15900
loop_ 
_geom_bond_atom_site_label_1 
_geom_bond_atom_site_label_2 
_geom_bond_distance 
_geom_bond_site_symmetry_2 
_ccdc_geom_bond_type 
O1            C9   1.266       .  A
O1          Co21   1.981   1_565  S
O2           C10   1.266   1_545  A
O2          Co22   1.992       .  S
O3           C11   1.237       .  A
O3          Co23   1.966       .  S
O4           C12   1.270       .  A
O4          Co24   1.971       .  S
O5           C11   1.255       .  A
O5          Co22   2.059   1_565  S
O6           C12   1.279       .  A
O6          Co21   2.038   1_565  S
O7           C10   1.270       .  A
O7          Co24   2.000       .  S
O8            C9   1.278       .  A
O8          Co23   2.034       .  S
C9         C1791   1.482       .  S
C10        C1711   1.492       .  S
C11        C1671   1.497       .  S
C12        C1758   1.499       .  S
O13          C26   1.254       .  A
O13         Co21   1.964       .  S
O14          C27   1.291       .  A
O14         Co22   1.962       .  S
O15          C28   1.265       .  A
O15         Co23   1.990   1_545  S
O16          C29   1.271       .  A
O16         Co24   1.991   1_545  S
O17          C29   1.279       .  A
O17         Co22   2.002       .  S
O18          C28   1.264       .  A
O18         Co21   2.004       .  S
O19          C26   1.269       .  A
O19         Co24   2.030   1_545  S
O20          C27   1.302       .  A
O20         Co23   2.030   1_545  S
Co21         O25   2.043   1_545  S
Co22         O25   2.063   1_545  S
Co23         O25   2.039       .  S
Co24         O25   2.061       .  S
C26        C1738   1.486       .  S
C27        C1651   1.488       .  S
C28        C1778   1.496       .  S
C29        C1698   1.479       .  S
O30          C38   1.264       .  A
O30         Co50   1.988       .  S
O31          C39   1.269       .  A
O31         Co51   2.024       .  S
O32          C40   1.266       .  A
O32         Co52   1.975       .  S
O33          C41   1.289       .  A
O33         Co53   2.028       .  S
O34          C40   1.273       .  A
O34         Co51   2.004       .  S
O35          C41   1.282       .  A
O35         Co50   1.916       .  S
O36          C39   1.241       .  A
O36         Co53   1.956       .  S
O37          C38   1.264       .  A
O37         Co52   1.999       .  S
C38        C1638   1.498       .  S
C39        C1571   1.496       .  S
C40        C1531   1.468       .  S
C41        C1498   1.478       .  S
O42          C55   1.268       .  A
O42         Co50   2.023   1_655  S
O43          C56   1.270       .  A
O43         Co51   1.986   1_655  S
O44          C57   1.272       .  A
O44         Co52   1.984   1_655  S
O45          C58   1.291       .  A
O45         Co53   2.039   1_655  S
O46          C58   1.278       .  A
O46         Co51   1.915   1_655  S
O47          C57   1.282       .  A
O47         Co50   2.036   1_655  S
O48          C55   1.242       .  A
O48         Co53   1.932   1_655  S
O49          C56   1.270       .  A
O49         Co52   2.002   1_655  S
Co50         O54   1.962       .  S
Co51         O54   1.972       .  S
Co52         O54   2.013       .  S
Co53         O54   2.079       .  S
C55        C1511   1.488       .  S
C56        C1551   1.498       .  S
C57        C1611   1.490       .  S
C58        C1591   1.478       .  S
O59          C67   1.302       .  A
O59         Co79   2.073   1_556  S
O60          C68   1.270       .  A
O60         Co80   2.029       .  S
O61          C69   1.301       .  A
O61         Co81   2.068       .  S
O62          C70   1.289       .  A
O62         Co82   2.036   1_556  S
O63          C69   1.282       .  A
O63         Co80   1.888       .  S
O64          C70   1.278       .  A
O64         Co79   1.915   1_556  S
O65          C68   1.242       .  A
O65         Co82   1.945   1_556  S
O66          C67   1.281       .  A
O66         Co81   1.920       .  S
C67        C1471   1.506       .  S
C68        C1391   1.490       .  S
C69        C1431   1.477       .  S
C70        C1358   1.478       .  S
O71          C84   1.268       .  A
O71         Co79   2.023       .  S
O72          C85   1.263       .  A
O72         Co80   1.975   1_554  S
O73          C86   1.262       .  A
O73         Co81   1.991   1_554  S
O74          C87   1.270       .  A
O74         Co82   1.962       .  S
O75          C87   1.279       .  A
O75         Co80   2.022   1_554  S
O76          C86   1.263       .  A
O76         Co79   1.996       .  S
O77          C84   1.243       .  A
O77         Co82   1.914       .  S
O78          C85   1.268       .  A
O78         Co81   2.004   1_554  S
Co79         O83   2.032       .  S
Co80         O83   1.961   1_556  S
Co81         O83   2.000   1_556  S
Co82         O83   2.024       .  S
C84        C1338   1.476       .  S
C85        C1418   1.492       .  S
C86        C1451   1.496       .  S
C87        C1378   1.491       .  S
C88        C1291   1.487       .  S
C88          N89   1.362       .  A
C88          N93   1.358       .  A
N89          C90   1.369       .  A
C90        C1678   1.507       .  S
C90          N91   1.364       .  A
N91          C92   1.361       .  A
C92        C1311   1.495       .  S
C92          N93   1.361       .  A
C94        C1251   1.504       .  S
C94          N95   1.367       .  A
C94          N99   1.367       .  A
N95          C96   1.358       .  A
C96        C1278   1.503       .  S
C96          N97   1.358       .  A
N97          C98   1.361       .  A
C98        C1318   1.499       .  S
C98          N99   1.362       .  A
C100       C1618   1.492       .  S
C100        N101   1.362       .  A
C100        N105   1.365       .  A
N101        C102   1.359       .  A
C102       C1271   1.497       .  S
C102        N103   1.358       .  A
N103        C104   1.360       .  A
C104       C1238   1.496       .  S
C104        N105   1.366       .  A
C106       C1218   1.489       .  S
C106        N107   1.363       .  A
C106        N111   1.362       .  A
N107        C108   1.363       .  A
C108       C1398   1.488       .  S
C108        N109   1.360       .  A
N109        C110   1.359       .  A
C110       C1258   1.500       .  S
C110        N111   1.362       .  A
C112       C1171   1.500       .  S
C112        N113   1.369       .  A
C112        N117   1.359       .  A
N113        C114   1.369       .  A
C114       C1158   1.503       .  S
C114        N115   1.360       .  A
N115        C116   1.355       .  A
C116       C1191   1.481       .  S
C116        N117   1.353       .  A
C118       C1478   1.500       .  S
C118        N119   1.369       .  A
C118        N123   1.363       .  A
N119        C120   1.367       .  A
C120       C1138   1.488       .  S
C120        N121   1.358       .  A
N121        C122   1.357       .  A
C122       C1198   1.500       .  S
C122        N123   1.360       .  A
C124       C1118   1.474       .  S
C124        N125   1.356       .  A
C124        N129   1.364       .  A
N125        C126   1.356       .  A
C126       C1178   1.495       .  S
C126        N127   1.359       .  A
N127        C128   1.362       .  A
C128       C1658   1.486       .  S
C128        N129   1.364       .  A
C130       C1098   1.496       .  S
C130        N131   1.361       .  A
C130        N135   1.365       .  A
N131        C132   1.359       .  A
C132       C1151   1.500       .  S
C132        N133   1.361       .  A
N133        C134   1.363       .  A
C134       C1578   1.499       .  S
C134        N135   1.365       .  A
O136        C144   1.252       .  A
O136       Co156   1.938   1_565  S
O137        C145   1.271       .  A
O137       Co157   1.964       .  S
O138        C146   1.301       .  A
O138       Co158   2.098       .  S
O139        C147   1.271   1_554  A
O139       Co159   2.020       .  S
O140        C146   1.276   1_554  A
O140       Co157   1.899       .  S
O141        C147   1.253       .  A
O141       Co156   1.947       .  S
O142        C145   1.284   1_545  A
O142       Co159   2.038       .  S
O143        C144   1.275       .  A
O143       Co158   2.028       .  S
C144       C1111   1.484       .  S
C145       C1038   1.493       .  S
C146        C998   1.488       .  S
C147       C1058   1.481   1_556  S
O148        C161   1.278       .  A
O148       Co156   2.005       .  S
O149        C162   1.260   1_554  A
O149       Co157   2.022       .  S
O150        C163   1.268       .  A
O150       Co158   1.991       .  S
O151        C164   1.265       .  A
O151       Co159   1.975   1_565  S
O152        C164   1.270       .  A
O152       Co157   2.023       .  S
O153        C163   1.264   1_545  A
O153       Co156   1.999       .  S
O154        C161   1.278   1_554  A
O154       Co159   1.990       .  S
O155        C162   1.254       .  A
O155       Co158   1.968       .  S
Co156       O160   1.981   1_545  S
Co157       O160   1.967   1_554  S
Co158       O160   2.128       .  S
Co159       O160   2.060   1_544  S
C161       C1078   1.492       .  S
C162        C978   1.485   1_556  S
C163       C1298   1.493       .  S
C164       C1011   1.490       .  S
C165        C951   1.487       .  S
C165        N166   1.355       .  A
C165        N170   1.359       .  A
N166        C167   1.355       .  A
C167        C911   1.477       .  S
C167        N168   1.358       .  A
N168        C169   1.361       .  A
C169        C931   1.489       .  S
C169        N170   1.360       .  A
C171       C1438   1.478       .  S
C171        N172   1.360       .  A
C171        N176   1.357       .  A
N172        C173   1.359       .  A
C173        C991   1.484       .  S
C173        N174   1.358       .  A
N174        C175   1.358       .  A
C175        C958   1.477       .  S
C175        N176   1.356       .  A
C177        C891   1.485       .  S
C177        N178   1.360       .  A
C177        N182   1.364       .  A
N178        C179   1.359       .  A
C179        C938   1.490       .  S
C179        N180   1.357       .  A
N180        C181   1.356       .  A
C181       C1718   1.493       .  S
C181        N182   1.362       .  A
C183        C871   1.492       .  S
C183        N184   1.356       .  A
C183        N188   1.364       .  A
N184        C185   1.352       .  A
C185        C918   1.480       .  S
C185        N186   1.353       .  A
N186        C187   1.357       .  A
C187       C1538   1.475       .  S
C187        N188   1.363       .  A
C189        C838   1.495       .  S
C189        N190   1.360       .  A
C189        N194   1.356       .  A
N190        C191   1.362       .  A
C191        C811   1.486       .  S
C191        N192   1.362       .  A
N192        C193   1.360       .  A
C193        C851   1.484       .  S
C193        N194   1.356       .  A
C195       C1598   1.481       .  S
C195        N196   1.361       .  A
C195        N200   1.361       .  A
N196        C197   1.359       .  A
C197        C791   1.482       .  S
C197        N198   1.357       .  A
N198        C199   1.358       .  A
C199        C858   1.490       .  S
C199        N200   1.359       .  A
C201        C778   1.484       .  S
C201        N202   1.361       .  A
C201        N206   1.361       .  A
N202        C203   1.359       .  A
C203       C1371   1.484       .  S
C203        N204   1.357       .  A
N204        C205   1.358       .  A
C205        C831   1.486       .  S
C205        N206   1.360       .  A
C207       C1731   1.480       .  S
C207        N208   1.360       .  A
C207        N212   1.358       .  A
N208        C209   1.360       .  A
C209       C1018   1.483       .  S
C209        N210   1.362       .  A
N210        C211   1.362       .  A
C211        C818   1.494       .  S
C211        N212   1.359       .  A
O213        C221   1.261   1_556  A
O213       Co233   1.979       .  S
O214        C222   1.274   1_554  A
O214       Co234   1.978       .  S
O215        C223   1.295   1_655  A
O215       Co235   2.095       .  S
O216        C224   1.271       .  A
O216       Co236   1.993       .  S
O217        C223   1.273       .  A
O217       Co234   1.924       .  S
O218        C224   1.270       .  A
O218       Co233   1.982   1_455  S
O219        C222   1.279       .  A
O219       Co236   2.020       .  S
O220        C221   1.266       .  A
O220       Co235   2.015       .  S
C221       C1211   1.495       .  S
C222        C758   1.492       .  S
C223        C718   1.503       .  S
C224        C878   1.479       .  S
O225        C238   1.269       .  A
O225       Co233   1.993       .  S
O226        C239   1.292   1_455  A
O226       Co234   2.088       .  S
O227        C240   1.270   1_554  A
O227       Co235   1.966       .  S
O228        C241   1.265   1_556  A
O228       Co236   1.977       .  S
O229        C241   1.270       .  A
O229       Co234   2.023       .  S
O230        C240   1.281       .  A
O230       Co233   2.035       .  S
O231        C238   1.272   1_455  A
O231       Co236   1.995       .  S
O232        C239   1.268       .  A
O232       Co235   1.908       .  S
Co233       O237   2.035   1_655  S
Co234       O237   2.025   1_554  S
Co235       O237   2.011   1_654  S
Co236       O237   2.030       .  S
C238        C698   1.487       .  S
C239        C731   1.486   1_655  S
C240        C771   1.490       .  S
C241       C1131   1.502       .  S
C242        C651   1.513       .  S
C242        N243   1.365       .  A
C242        N247   1.375       .  A
N243        C244   1.360       .  A
C244        C678   1.495       .  S
C244        N245   1.353       .  A
N245        C246   1.357       .  A
C246       C1691   1.502       .  S
C246        N247   1.373       .  A
C248        C671   1.495       .  S
C248        N249   1.358       .  A
C248        N253   1.363       .  A
N249        C250   1.357       .  A
C250        C638   1.483       .  S
C250        N251   1.359       .  A
N251        C252   1.361       .  A
C252        C611   1.494       .  S
C252        N253   1.364       .  A
C254       C1491   1.484       .  S
C254        N255   1.363       .  A
C254        N259   1.362       .  A
N255        C256   1.360       .  A
C256        C738   1.481       .  S
C256        N257   1.355       .  A
N257        C258   1.355       .  A
C258        C631   1.483       .  S
C258        N259   1.358       .  A
C260       C1331   1.477       .  S
C260        N261   1.357       .  A
C260        N265   1.357       .  A
N261        C262   1.356       .  A
C262        C618   1.492       .  S
C262        N263   1.360       .  A
N263        C264   1.364       .  A
C264       C1051   1.495       .  S
C264        N265   1.359       .  A
C266        C598   1.489       .  S
C266        N267   1.359       .  A
C266        N271   1.359       .  A
N267        C268   1.360       .  A
C268        C571   1.492       .  S
C268        N269   1.361       .  A
N269        C270   1.362       .  A
C270        C551   1.494       .  S
C270        N271   1.359       .  A
C272       C1558   1.498       .  S
C272        N273   1.366       .  A
C272        N277   1.358       .  A
N273        C274   1.366       .  A
C274        C691   1.494       .  S
C274        N275   1.359       .  A
N275        C276   1.357       .  A
C276        C591   1.490       .  S
C276        N277   1.356       .  A
C278       C1071   1.487       .  S
C278        N279   1.366       .  A
C278        N283   1.358       .  A
N279        C280   1.366       .  A
C280       C1351   1.486       .  S
C280        N281   1.360       .  A
N281        C282   1.356       .  A
C282        C578   1.479       .  S
C282        N283   1.355       .  A
C284       C1771   1.499       .  S
C284        N285   1.359       .  A
C284        N289   1.372       .  A
N285        C286   1.356       .  A
C286        C558   1.491       .  S
C286        N287   1.355       .  A
N287        C288   1.360       .  A
C288        C538   1.498       .  S
C288        N289   1.373       .  A
C290        C511   1.487       .  S
C290        N291   1.362       .  A
C290        N295   1.362       .  A
N291        C292   1.361       .  A
C292        C491   1.493       .  S
C292        N293   1.357       .  A
N293        C294   1.358       .  A
C294        C471   1.491       .  S
C294        N295   1.359       .  A
C296       C1798   1.493       .  S
C296        N297   1.356       .  A
C296        N301   1.365       .  A
N297        C298   1.356       .  A
C298        C518   1.497       .  S
C298        N299   1.362       .  A
N299        C300   1.365       .  A
C300        C451   1.494       .  S
C300        N301   1.367       .  A
C302        C711   1.496       .  S
C302        N303   1.365       .  A
C302        N307   1.364       .  A
N303        C304   1.363       .  A
C304        C498   1.488       .  S
C304        N305   1.356       .  A
N305        C306   1.355       .  A
C306       C1518   1.475       .  S
C306        N307   1.361       .  A
C308        C971   1.491       .  S
C308        N309   1.359       .  A
C308        N313   1.368       .  A
N309        C310   1.354       .  A
C310        C478   1.490       .  S
C310        N311   1.355       .  A
N311        C312   1.359       .  A
C312       C1411   1.494       .  S
C312        N313   1.368       .  A
C314        C418   1.480       .  S
C314        N315   1.358       .  A
C314        N319   1.360       .  A
N315        C316   1.358       .  A
C316        C431   1.489       .  S
C316        N317   1.358       .  A
N317        C318   1.358       .  A
C318        C391   1.494       .  S
C318        N319   1.360       .  A
C320       C1751   1.501       .  S
C320        N321   1.359       .  A
C320        N325   1.371       .  A
N321        C322   1.355       .  A
C322        C438   1.492       .  S
C322        N323   1.354       .  A
N323        C324   1.356       .  A
C324       C1031   1.480       .  S
C324        N325   1.369       .  A
C326        C378   1.483       .  S
C326        N327   1.356       .  A
C326        N331   1.366       .  A
N327        C328   1.355       .  A
C328        C411   1.492       .  S
C328        N329   1.357       .  A
N329        C330   1.361       .  A
C330       C1631   1.495       .  S
C330        N331   1.368       .  A
C332       C1458   1.490       .  S
C332        N333   1.357       .  A
C332        N337   1.364       .  A
N333        C334   1.357       .  A
C334        C398   1.493       .  S
C334        N335   1.357       .  A
N335        C336   1.359       .  A
C336        C751   1.486       .  S
C336        N337   1.365       .  A
O338        C346   1.268       .  A
O338       Co358   1.991       .  S
O339        C347   1.288   1_455  A
O339       Co359   2.076       .  S
O340        C348   1.262       .  A
O340       Co360   1.978   1_545  S
O341        C349   1.278       .  A
O341       Co361   1.989       .  S
O342        C348   1.268       .  A
O342       Co359   2.018       .  S
O343        C349   1.281   1_565  A
O343       Co358   2.038       .  S
O344        C347   1.273       .  A
O344       Co361   1.939       .  S
O345        C346   1.271   1_455  A
O345       Co360   1.998       .  S
C346       C1231   1.486       .  S
C347       C1091   1.502   1_655  S
C348        C898   1.496       .  S
C349        C531   1.510       .  S
O350        C363   1.264       .  A
O350       Co358   1.979   1_545  S
O351        C364   1.270   1_545  A
O351       Co359   1.980       .  S
O352        C365   1.270       .  A
O352       Co360   1.999       .  S
O353        C366   1.291   1_655  A
O353       Co361   2.082       .  S
O354        C366   1.271       .  A
O354       Co359   1.916       .  S
O355        C365   1.272       .  A
O355       Co358   1.987   1_455  S
O356        C363   1.266       .  A
O356       Co361   2.013       .  S
O357        C364   1.283       .  A
O357       Co360   2.058       .  S
Co358       O362   2.048   1_665  S
Co359       O362   2.035       .  S
Co360       O362   2.054   1_565  S
Co361       O362   2.044   1_655  S
C363        C458   1.502       .  S
C364        C658   1.512   1_565  S
C365        C371   1.480       .  S
C366        C798   1.489       .  S
C367        C368   1.406       .  A
C367        C372   1.401       .  A
C367        F385   1.358       .  S
C368        C373   1.489       .  S
C368        C369   1.407       .  A
C369        C370   1.405       .  A
C369        F374   1.358   1_455  S
C370        C371   1.407       .  A
C370        F386   1.358   1_455  S
C371        C372   1.407       .  A
C372        F375   1.358       .  S
C373        C376   1.409       .  A
C373        C380   1.405       .  A
C376        C377   1.404       .  A
C376        F381   1.358       .  S
C377        C378   1.405       .  A
C377        F383   1.358       .  S
C378        C379   1.409       .  A
C379        C380   1.402       .  A
C379        F382   1.358       .  S
C380        F384   1.358       .  S
C387        C388   1.401       .  A
C387        C392   1.397       .  A
C387        F405   1.358       .  S
C388        C393   1.480       .  S
C388        C389   1.403       .  A
C389        C390   1.399       .  A
C389        F394   1.358       .  S
C390        C391   1.413       .  A
C390        F406   1.357       .  S
C391        C392   1.415       .  A
C392        F395   1.356       .  S
C393        C396   1.402       .  A
C393        C400   1.403       .  A
C396        C397   1.396       .  A
C396        F401   1.358       .  S
C397        C398   1.414       .  A
C397        F403   1.357       .  S
C398        C399   1.415       .  A
C399        C400   1.400       .  A
C399        F402   1.357       .  S
C400        F404   1.358       .  S
C407        C408   1.402       .  A
C407        C412   1.400       .  A
C407        F425   1.358       .  S
C408        C413   1.477       .  S
C408        C409   1.401       .  A
C409        C410   1.398       .  A
C409        F414   1.358       .  S
C410        C411   1.415       .  A
C410        F426   1.358       .  S
C411        C412   1.414       .  A
C412        F415   1.357       .  S
C413        C416   1.403       .  A
C413        C420   1.403       .  A
C416        C417   1.399       .  A
C416        F421   1.358       .  S
C417        C418   1.408       .  A
C417        F423   1.358       .  S
C418        C419   1.409       .  A
C419        C420   1.399       .  A
C419        F422   1.358       .  S
C420        F424   1.358       .  S
C427        C428   1.401       .  A
C427        C432   1.395       .  A
C427        F445   1.358       .  S
C428        C433   1.478       .  S
C428        C429   1.404       .  A
C429        C430   1.400       .  A
C429        F434   1.358       .  S
C430        C431   1.413       .  A
C430        F446   1.358       .  S
C431        C432   1.412       .  A
C432        F435   1.356       .  S
C433        C436   1.403       .  A
C433        C440   1.401       .  A
C436        C437   1.398       .  A
C436        F441   1.358       .  S
C437        C438   1.414       .  A
C437        F443   1.358       .  S
C438        C439   1.414       .  A
C439        C440   1.396       .  A
C439        F442   1.357       .  S
C440        F444   1.358       .  S
C447        C448   1.409       .  A
C447        C452   1.404       .  A
C447        F465   1.358       .  S
C448        C453   1.500       .  S
C448        C449   1.410       .  A
C449        C450   1.408       .  A
C449        F454   1.358   1_565  S
C450        C451   1.409       .  A
C450        F466   1.358       .  S
C451        C452   1.409       .  A
C452        F455   1.358       .  S
C453        C456   1.410       .  A
C453        C460   1.406   1_565  A
C456        C457   1.407       .  A
C456        F461   1.358       .  S
C457        C458   1.411   1_565  A
C457        F463   1.357       .  S
C458        C459   1.415       .  A
C459        C460   1.404       .  A
C459        F462   1.358       .  S
C460        F464   1.357       .  S
C467        C468   1.405       .  A
C467        C472   1.396       .  A
C467        F485   1.358       .  S
C468        C473   1.487       .  S
C468        C469   1.406       .  A
C469        C470   1.402       .  A
C469        F474   1.358       .  S
C470        C471   1.412       .  A
C470        F486   1.357       .  S
C471        C472   1.411       .  A
C472        F475   1.358       .  S
C473        C476   1.405       .  A
C473        C480   1.406       .  A
C476        C477   1.397       .  A
C476        F481   1.358       .  S
C477        C478   1.411       .  A
C477        F483   1.357       .  S
C478        C479   1.412       .  A
C479        C480   1.400       .  A
C479        F482   1.357       .  S
C480        F484   1.358       .  S
C487        C488   1.403       .  A
C487        C492   1.400       .  A
C487        F505   1.358       .  S
C488        C493   1.485       .  S
C488        C489   1.405       .  A
C489        C490   1.403       .  A
C489        F494   1.358       .  S
C490        C491   1.411       .  A
C490        F506   1.357       .  S
C491        C492   1.414       .  A
C492        F495   1.358       .  S
C493        C496   1.406       .  A
C493        C500   1.404       .  A
C496        C497   1.402       .  A
C496        F501   1.358       .  S
C497        C498   1.408       .  A
C497        F503   1.357       .  S
C498        C499   1.412       .  A
C499        C500   1.401       .  A
C499        F502   1.358       .  S
C500        F504   1.358       .  S
C507        C508   1.405       .  A
C507        C512   1.404       .  A
C507        F525   1.358       .  S
C508        C513   1.484       .  S
C508        C509   1.404       .  A
C509        C510   1.399       .  A
C509        F514   1.358       .  S
C510        C511   1.409       .  A
C510        F526   1.358       .  S
C511        C512   1.411       .  A
C512        F515   1.358       .  S
C513        C516   1.405       .  A
C513        C520   1.401       .  A
C516        C517   1.405       .  A
C516        F521   1.358       .  S
C517        C518   1.413       .  A
C517        F523   1.357       .  S
C518        C519   1.415       .  A
C519        C520   1.397       .  A
C519        F522   1.357       .  S
C520        F524   1.358       .  S
C527        C528   1.412       .  A
C527        C532   1.409       .  A
C527        F545   1.358       .  S
C528        C533   1.506       .  S
C528        C529   1.406   1_545  A
C529        C530   1.406       .  A
C529        F534   1.358       .  S
C530        C531   1.419   1_565  A
C530        F546   1.357       .  S
C531        C532   1.412       .  A
C532        F535   1.357       .  S
C533        C536   1.414       .  A
C533        C540   1.407       .  A
C536        C537   1.411       .  A
C536        F541   1.357       .  S
C537        C538   1.408       .  A
C537        F543   1.357       .  S
C538        C539   1.412       .  A
C539        C540   1.403       .  A
C539        F542   1.358       .  S
C540        F544   1.358       .  S
C547        C548   1.404       .  A
C547        C552   1.399       .  A
C547        F565   1.358       .  S
C548        C553   1.483       .  S
C548        C549   1.403       .  A
C549        C550   1.401       .  A
C549        F554   1.358       .  S
C550        C551   1.415       .  A
C550        F566   1.357       .  S
C551        C552   1.412       .  A
C552        F555   1.357       .  S
C553        C556   1.403       .  A
C553        C560   1.405       .  A
C556        C557   1.397       .  A
C556        F561   1.358       .  S
C557        C558   1.411       .  A
C557        F563   1.357       .  S
C558        C559   1.414       .  A
C559        C560   1.403       .  A
C559        F562   1.358       .  S
C560        F564   1.358       .  S
C567        C568   1.402       .  A
C567        C572   1.400       .  A
C567        F585   1.358       .  S
C568        C573   1.482       .  S
C568        C569   1.403       .  A
C569        C570   1.401       .  A
C569        F574   1.358       .  S
C570        C571   1.412       .  A
C570        F586   1.357       .  S
C571        C572   1.413       .  A
C572        F575   1.358       .  S
C573        C576   1.406       .  A
C573        C580   1.404       .  A
C576        C577   1.402       .  A
C576        F581   1.358       .  S
C577        C578   1.408       .  A
C577        F583   1.358       .  S
C578        C579   1.407       .  A
C579        C580   1.399       .  A
C579        F582   1.358       .  S
C580        F584   1.358       .  S
C587        C588   1.402       .  A
C587        C592   1.400       .  A
C587        F605   1.358       .  S
C588        C593   1.479       .  S
C588        C589   1.402       .  A
C589        C590   1.399       .  A
C589        F594   1.358       .  S
C590        C591   1.412       .  A
C590        F606   1.358       .  S
C591        C592   1.413       .  A
C592        F595   1.358       .  S
C593        C596   1.402       .  A
C593        C600   1.403       .  A
C596        C597   1.398       .  A
C596        F601   1.358       .  S
C597        C598   1.412       .  A
C597        F603   1.357       .  S
C598        C599   1.412       .  A
C599        C600   1.401       .  A
C599        F602   1.358       .  S
C600        F604   1.358       .  S
C607        C608   1.402       .  A
C607        C612   1.402       .  A
C607        F625   1.358       .  S
C608        C613   1.481       .  S
C608        C609   1.402       .  A
C609        C610   1.402       .  A
C609        F614   1.358       .  S
C610        C611   1.412       .  A
C610        F626   1.357       .  S
C611        C612   1.414       .  A
C612        F615   1.358       .  S
C613        C616   1.402       .  A
C613        C620   1.403       .  A
C616        C617   1.399       .  A
C616        F621   1.358       .  S
C617        C618   1.413       .  A
C617        F623   1.357       .  S
C618        C619   1.412       .  A
C619        C620   1.403       .  A
C619        F622   1.357       .  S
C620        F624   1.357       .  S
C627        C628   1.403       .  A
C627        C632   1.394       .  A
C627        F645   1.358       .  S
C628        C633   1.484       .  S
C628        C629   1.407       .  A
C629        C630   1.404       .  A
C629        F634   1.358       .  S
C630        C631   1.409       .  A
C630        F646   1.358       .  S
C631        C632   1.409       .  A
C632        F635   1.357       .  S
C633        C636   1.405       .  A
C633        C640   1.406       .  A
C636        C637   1.402       .  A
C636        F641   1.358       .  S
C637        C638   1.409       .  A
C637        F643   1.358       .  S
C638        C639   1.408       .  A
C639        C640   1.398       .  A
C639        F642   1.358       .  S
C640        F644   1.358       .  S
C647        C648   1.410       .  A
C647        C652   1.406       .  A
C647        F665   1.358       .  S
C648        C653   1.519       .  S
C648        C649   1.417       .  A
C649        C650   1.415       .  A
C649        F654   1.357       .  S
C650        C651   1.412       .  A
C650        F666   1.357       .  S
C651        C652   1.415       .  A
C652        F655   1.358       .  S
C653        C656   1.415       .  A
C653        C660   1.409       .  A
C656        C657   1.412       .  A
C656        F661   1.357       .  S
C657        C658   1.411       .  A
C657        F663   1.357       .  S
C658        C659   1.415       .  A
C659        C660   1.410       .  A
C659        F662   1.356   1_545  S
C660        F664   1.355       .  S
C667        C668   1.407       .  A
C667        C672   1.404       .  A
C667        F685   1.358       .  S
C668        C673   1.490       .  S
C668        C669   1.404       .  A
C669        C670   1.400       .  A
C669        F674   1.358       .  S
C670        C671   1.413       .  A
C670        F686   1.357       .  S
C671        C672   1.411       .  A
C672        F675   1.357       .  S
C673        C676   1.405       .  A
C673        C680   1.407       .  A
C676        C677   1.402       .  A
C676        F681   1.358       .  S
C677        C678   1.414       .  A
C677        F683   1.357       .  S
C678        C679   1.410       .  A
C679        C680   1.403       .  A
C679        F682   1.357       .  S
C680        F684   1.358       .  S
C687        C688   1.401       .  A
C687        C692   1.402       .  A
C687        F705   1.358       .  S
C688        C693   1.483       .  S
C688        C689   1.406       .  A
C689        C690   1.403       .  A
C689        F694   1.358       .  S
C690        C691   1.410       .  A
C690        F706   1.357       .  S
C691        C692   1.415       .  A
C692        F695   1.358       .  S
C693        C696   1.408   1_655  A
C693        C700   1.400       .  A
C696        C697   1.410       .  A
C696        F701   1.357       .  S
C697        C698   1.411   1_455  A
C697        F703   1.357       .  S
C698        C699   1.410       .  A
C699        C700   1.393       .  A
C699        F702   1.358       .  S
C700        F704   1.358       .  S
C707        C708   1.407       .  A
C707        C712   1.405       .  A
C707        F725   1.357       .  S
C708        C713   1.494       .  S
C708        C709   1.406       .  A
C709        C710   1.405       .  A
C709        F714   1.356       .  S
C710        C711   1.412       .  A
C710        F726   1.358       .  S
C711        C712   1.411       .  A
C712        F715   1.358       .  S
C713        C716   1.407   1_655  A
C713        C720   1.403       .  A
C716        C717   1.410       .  A
C716        F721   1.357       .  S
C717        C718   1.414       .  A
C717        F723   1.357       .  S
C718        C719   1.415   1_455  A
C719        C720   1.402       .  A
C719        F722   1.358       .  S
C720        F724   1.358       .  S
C727        C728   1.402       .  A
C727        C732   1.397       .  A
C727        F745   1.358       .  S
C728        C733   1.478       .  S
C728        C729   1.403   1_455  A
C729        C730   1.401       .  A
C729        F734   1.357       .  S
C730        C731   1.412   1_655  A
C730        F746   1.357       .  S
C731        C732   1.412       .  A
C732        F735   1.358       .  S
C733        C736   1.405       .  A
C733        C740   1.401       .  A
C736        C737   1.402       .  A
C736        F741   1.355       .  S
C737        C738   1.407       .  A
C737        F743   1.358       .  S
C738        C739   1.410       .  A
C739        C740   1.396       .  A
C739        F742   1.357       .  S
C740        F744   1.358       .  S
C747        C748   1.408       .  A
C747        C752   1.401       .  A
C747        F765   1.358       .  S
C748        C753   1.487       .  S
C748        C749   1.404       .  A
C749        C750   1.401       .  A
C749        F754   1.358       .  S
C750        C751   1.411       .  A
C750        F766   1.358       .  S
C751        C752   1.407       .  A
C752        F755   1.358       .  S
C753        C756   1.407       .  A
C753        C760   1.402   1_554  A
C756        C757   1.403       .  A
C756        F761   1.358       .  S
C757        C758   1.411   1_554  A
C757        F763   1.358       .  S
C758        C759   1.415       .  A
C759        C760   1.398       .  A
C759        F762   1.358       .  S
C760        F764   1.358       .  S
C767        C768   1.405   1_556  A
C767        C772   1.401       .  A
C767        F785   1.358       .  S
C768        C773   1.486       .  S
C768        C769   1.404       .  A
C769        C770   1.399       .  A
C769        F774   1.358       .  S
C770        C771   1.412   1_554  A
C770        F786   1.358       .  S
C771        C772   1.412       .  A
C772        F775   1.358       .  S
C773        C776   1.406       .  A
C773        C780   1.406       .  A
C776        C777   1.403       .  A
C776        F781   1.358       .  S
C777        C778   1.410       .  A
C777        F783   1.358       .  S
C778        C779   1.407       .  A
C779        C780   1.397       .  A
C779        F782   1.358       .  S
C780        F784   1.356       .  S
C787        C788   1.405       .  A
C787        C792   1.399       .  A
C787        F805   1.358       .  S
C788        C793   1.485       .  S
C788        C789   1.407       .  A
C789        C790   1.401       .  A
C789        F794   1.356       .  S
C790        C791   1.408       .  A
C790        F806   1.358       .  S
C791        C792   1.408       .  A
C792        F795   1.358       .  S
C793        C796   1.406   1_655  A
C793        C800   1.403       .  A
C796        C797   1.404       .  A
C796        F801   1.357       .  S
C797        C798   1.411       .  A
C797        F803   1.357       .  S
C798        C799   1.413   1_455  A
C799        C800   1.396       .  A
C799        F802   1.358       .  S
C800        F804   1.358       .  S
C807        C808   1.407       .  A
C807        C812   1.401       .  A
C807        F825   1.358       .  S
C808        C813   1.488       .  S
C808        C809   1.406       .  A
C809        C810   1.400       .  A
C809        F814   1.358       .  S
C810        C811   1.409       .  A
C810        F826   1.358       .  S
C811        C812   1.409       .  A
C812        F815   1.358       .  S
C813        C816   1.404       .  A
C813        C820   1.406       .  A
C816        C817   1.400       .  A
C816        F821   1.358       .  S
C817        C818   1.413       .  A
C817        F823   1.358       .  S
C818        C819   1.412       .  A
C819        C820   1.402       .  A
C819        F822   1.357       .  S
C820        F824   1.358       .  S
C827        C828   1.400       .  A
C827        C832   1.397       .  A
C827        F845   1.358       .  S
C828        C833   1.475       .  S
C828        C829   1.403       .  A
C829        C830   1.402       .  A
C829        F834   1.358       .  S
C830        C831   1.411       .  A
C830        F846   1.358       .  S
C831        C832   1.411       .  A
C832        F835   1.357       .  S
C833        C836   1.401       .  A
C833        C840   1.399       .  A
C836        C837   1.401       .  A
C836        F841   1.358       .  S
C837        C838   1.414       .  A
C837        F843   1.357       .  S
C838        C839   1.416       .  A
C839        C840   1.397       .  A
C839        F842   1.357       .  S
C840        F844   1.358       .  S
C847        C848   1.404       .  A
C847        C852   1.402       .  A
C847        F865   1.358       .  S
C848        C853   1.477       .  S
C848        C849   1.402       .  A
C849        C850   1.397       .  A
C849        F854   1.358       .  S
C850        C851   1.411       .  A
C850        F866   1.358       .  S
C851        C852   1.409       .  A
C852        F855   1.357       .  S
C853        C856   1.400       .  A
C853        C860   1.403       .  A
C856        C857   1.396       .  A
C856        F861   1.358       .  S
C857        C858   1.412       .  A
C857        F863   1.357       .  S
C858        C859   1.414       .  A
C859        C860   1.402       .  A
C859        F862   1.357       .  S
C860        F864   1.358       .  S
C867        C868   1.403       .  A
C867        C872   1.402       .  A
C867        F885   1.358       .  S
C868        C873   1.471       .  S
C868        C869   1.396       .  A
C869        C870   1.392       .  A
C869        F874   1.358       .  S
C870        C871   1.417       .  A
C870        F886   1.357       .  S
C871        C872   1.413       .  A
C872        F875   1.357       .  S
C873        C876   1.399       .  A
C873        C880   1.403       .  A
C876        C877   1.390       .  A
C876        F881   1.359       .  S
C877        C878   1.410       .  A
C877        F883   1.359       .  S
C878        C879   1.410       .  A
C879        C880   1.404       .  A
C879        F882   1.357   1_455  S
C880        F884   1.357   1_455  S
C887        C888   1.407       .  A
C887        C892   1.399       .  A
C887        F905   1.355       .  S
C888        C893   1.490       .  S
C888        C889   1.406       .  A
C889        C890   1.405       .  A
C889        F894   1.357       .  S
C890        C891   1.410       .  A
C890        F906   1.358       .  S
C891        C892   1.405       .  A
C892        F895   1.358       .  S
C893        C896   1.404       .  A
C893        C900   1.406   1_565  A
C896        C897   1.403       .  A
C896        F901   1.358       .  S
C897        C898   1.414   1_565  A
C897        F903   1.358       .  S
C898        C899   1.412       .  A
C899        C900   1.403       .  A
C899        F902   1.358       .  S
C900        F904   1.358       .  S
C907        C908   1.404       .  A
C907        C912   1.399       .  A
C907        F925   1.358       .  S
C908        C913   1.472       .  S
C908        C909   1.401       .  A
C909        C910   1.395       .  A
C909        F914   1.358       .  S
C910        C911   1.409       .  A
C910        F926   1.358       .  S
C911        C912   1.408       .  A
C912        F915   1.358       .  S
C913        C916   1.401       .  A
C913        C920   1.401       .  A
C916        C917   1.397       .  A
C916        F921   1.358       .  S
C917        C918   1.410       .  A
C917        F923   1.357       .  S
C918        C919   1.411       .  A
C919        C920   1.396       .  A
C919        F922   1.357       .  S
C920        F924   1.358       .  S
C927        C928   1.404       .  A
C927        C932   1.399       .  A
C927        F945   1.358       .  S
C928        C933   1.484       .  S
C928        C929   1.405       .  A
C929        C930   1.399       .  A
C929        F934   1.358       .  S
C930        C931   1.411       .  A
C930        F946   1.358       .  S
C931        C932   1.412       .  A
C932        F935   1.357       .  S
C933        C936   1.404       .  A
C933        C940   1.405       .  A
C936        C937   1.398       .  A
C936        F941   1.358       .  S
C937        C938   1.413       .  A
C937        F943   1.358       .  S
C938        C939   1.411       .  A
C939        C940   1.400       .  A
C939        F942   1.357       .  S
C940        F944   1.358       .  S
C947        C948   1.401       .  A
C947        C952   1.397       .  A
C947        F965   1.358       .  S
C948        C953   1.473       .  S
C948        C949   1.401       .  A
C949        C950   1.397       .  A
C949        F954   1.358       .  S
C950        C951   1.414       .  A
C950        F966   1.358       .  S
C951        C952   1.412       .  A
C952        F955   1.356       .  S
C953        C956   1.402       .  A
C953        C960   1.403       .  A
C956        C957   1.396       .  A
C956        F961   1.358       .  S
C957        C958   1.408       .  A
C957        F963   1.358       .  S
C958        C959   1.409       .  A
C959        C960   1.398       .  A
C959        F962   1.358       .  S
C960        F964   1.358       .  S
C967        C968   1.408       .  A
C967        C972   1.407       .  A
C967        F985   1.358       .  S
C968        C973   1.485       .  S
C968        C969   1.400       .  A
C969        C970   1.399       .  A
C969        F974   1.358       .  S
C970        C971   1.413       .  A
C970        F986   1.358       .  S
C971        C972   1.409       .  A
C972        F975   1.358       .  S
C973        C976   1.404       .  A
C973        C980   1.404   1_554  A
C976        C977   1.399       .  A
C976        F981   1.358       .  S
C977        C978   1.408       .  A
C977        F983   1.358       .  S
C978        C979   1.413   1_554  A
C979        C980   1.406       .  A
C979        F982   1.358       .  S
C980        F984   1.358       .  S
C987        C988   1.405       .  A
C987        C992   1.399       .  A
C987       F1005   1.358       .  S
C988        C993   1.484       .  S
C988        C989   1.406       .  A
C989        C990   1.400       .  A
C989        F994   1.358       .  S
C990        C991   1.409       .  A
C990       F1006   1.358       .  S
C991        C992   1.409       .  A
C992        F995   1.358       .  S
C993        C996   1.406   1_556  A
C993       C1000   1.403       .  A
C996        C997   1.404       .  A
C996       F1001   1.357       .  S
C997        C998   1.410   1_554  A
C997       F1003   1.357       .  S
C998        C999   1.413       .  A
C999       C1000   1.395       .  A
C999       F1002   1.358       .  S
C1000      F1004   1.359       .  S
C1007      C1008   1.406       .  A
C1007      C1012   1.404       .  A
C1007      F1025   1.358       .  S
C1008      C1013   1.487   1_565  S
C1008      C1009   1.405   1_565  A
C1009      C1010   1.399   1_545  A
C1009      F1014   1.358       .  S
C1010      C1011   1.409       .  A
C1010      F1026   1.358       .  S
C1011      C1012   1.413       .  A
C1012      F1015   1.357       .  S
C1013      C1016   1.406   1_545  A
C1013      C1020   1.407       .  A
C1016      C1017   1.405   1_565  A
C1016      F1021   1.358       .  S
C1017      C1018   1.409       .  A
C1017      F1023   1.358   1_545  S
C1018      C1019   1.405       .  A
C1019      C1020   1.399       .  A
C1019      F1022   1.358       .  S
C1020      F1024   1.358       .  S
C1027      C1028   1.405       .  A
C1027      C1032   1.404       .  A
C1027      F1045   1.358       .  S
C1028      C1033   1.490       .  S
C1028      C1029   1.409       .  A
C1029      C1030   1.405       .  A
C1029      F1034   1.358       .  S
C1030      C1031   1.405       .  A
C1030      F1046   1.358       .  S
C1031      C1032   1.407       .  A
C1032      F1035   1.358       .  S
C1033      C1036   1.404       .  A
C1033      C1040   1.406       .  A
C1036      C1037   1.402   1_565  A
C1036      F1041   1.357   1_565  S
C1037      C1038   1.411   1_545  A
C1037      F1043   1.358       .  S
C1038      C1039   1.414       .  A
C1039      C1040   1.405       .  A
C1039      F1042   1.358       .  S
C1040      F1044   1.358       .  S
C1047      C1048   1.404       .  A
C1047      C1052   1.400       .  A
C1047      F1065   1.359       .  S
C1048      C1053   1.482       .  S
C1048      C1049   1.403       .  A
C1049      C1050   1.397       .  A
C1049      F1054   1.358       .  S
C1050      C1051   1.413       .  A
C1050      F1066   1.357       .  S
C1051      C1052   1.416       .  A
C1052      F1055   1.358       .  S
C1053      C1056   1.402       .  A
C1053      C1060   1.409       .  A
C1056      C1057   1.392       .  A
C1056      F1061   1.358       .  S
C1057      C1058   1.408       .  A
C1057      F1063   1.357       .  S
C1058      C1059   1.409   1_554  A
C1059      C1060   1.405   1_556  A
C1059      F1062   1.358       .  S
C1060      F1064   1.358   1_554  S
C1067      C1068   1.403       .  A
C1067      C1072   1.402       .  A
C1067      F1085   1.357       .  S
C1068      C1073   1.488       .  S
C1068      C1069   1.409       .  A
C1069      C1070   1.404       .  A
C1069      F1074   1.358       .  S
C1070      C1071   1.407       .  A
C1070      F1086   1.358       .  S
C1071      C1072   1.411       .  A
C1072      F1075   1.358       .  S
C1073      C1076   1.406       .  A
C1073      C1080   1.403       .  A
C1076      C1077   1.409       .  A
C1076      F1081   1.358   1_556  S
C1077      C1078   1.414       .  A
C1077      F1083   1.358   1_556  S
C1078      C1079   1.410       .  A
C1079      C1080   1.398       .  A
C1079      F1082   1.358       .  S
C1080      F1084   1.358       .  S
C1087      C1088   1.408   1_655  A
C1087      C1092   1.410       .  A
C1087      F1105   1.357       .  S
C1088      C1093   1.494       .  S
C1088      C1089   1.403       .  A
C1089      C1090   1.400       .  A
C1089      F1094   1.358       .  S
C1090      C1091   1.416       .  A
C1090      F1106   1.358       .  S
C1091      C1092   1.413   1_455  A
C1092      F1095   1.357       .  S
C1093      C1096   1.405       .  A
C1093      C1100   1.407       .  A
C1096      C1097   1.403       .  A
C1096      F1101   1.358       .  S
C1097      C1098   1.412       .  A
C1097      F1103   1.357       .  S
C1098      C1099   1.411       .  A
C1099      C1100   1.407       .  A
C1099      F1102   1.358       .  S
C1100      F1104   1.356       .  S
C1107      C1108   1.408   1_565  A
C1107      C1112   1.396       .  A
C1107      F1125   1.357       .  S
C1108      C1113   1.491       .  S
C1108      C1109   1.408       .  A
C1109      C1110   1.400       .  A
C1109      F1114   1.358       .  S
C1110      C1111   1.413   1_545  A
C1110      F1126   1.359       .  S
C1111      C1112   1.406       .  A
C1112      F1115   1.358       .  S
C1113      C1116   1.409       .  A
C1113      C1120   1.411       .  A
C1116      C1117   1.401       .  A
C1116      F1121   1.358   1_545  S
C1117      C1118   1.404       .  A
C1117      F1123   1.357       .  S
C1118      C1119   1.403       .  A
C1119      C1120   1.399       .  A
C1119      F1122   1.358       .  S
C1120      F1124   1.358       .  S
C1127      C1128   1.407   1_554  A
C1127      C1132   1.406       .  A
C1127      F1145   1.357       .  S
C1128      C1133   1.501       .  S
C1128      C1129   1.409       .  A
C1129      C1130   1.405       .  A
C1129      F1134   1.358       .  S
C1130      C1131   1.413   1_556  A
C1130      F1146   1.358       .  S
C1131      C1132   1.414       .  A
C1132      F1135   1.358       .  S
C1133      C1136   1.413       .  A
C1133      C1140   1.408       .  A
C1136      C1137   1.411       .  A
C1136      F1141   1.357   1_556  S
C1137      C1138   1.407       .  A
C1137      F1143   1.357       .  S
C1138      C1139   1.407       .  A
C1139      C1140   1.400       .  A
C1139      F1142   1.358       .  S
C1140      F1144   1.358       .  S
C1147      C1148   1.406       .  A
C1147      C1152   1.403       .  A
C1147      F1165   1.358       .  S
C1148      C1153   1.492       .  S
C1148      C1149   1.405       .  A
C1149      C1150   1.403       .  A
C1149      F1154   1.358       .  S
C1150      C1151   1.414       .  A
C1150      F1166   1.357       .  S
C1151      C1152   1.413       .  A
C1152      F1155   1.357       .  S
C1153      C1156   1.402       .  A
C1153      C1160   1.407       .  A
C1156      C1157   1.400       .  A
C1156      F1161   1.358       .  S
C1157      C1158   1.417       .  A
C1157      F1163   1.357       .  S
C1158      C1159   1.413       .  A
C1159      C1160   1.407       .  A
C1159      F1162   1.357       .  S
C1160      F1164   1.358       .  S
C1167      C1168   1.400       .  A
C1167      C1172   1.399       .  A
C1167      F1185   1.358       .  S
C1168      C1173   1.485       .  S
C1168      C1169   1.405       .  A
C1169      C1170   1.405       .  A
C1169      F1174   1.358       .  S
C1170      C1171   1.413       .  A
C1170      F1186   1.357       .  S
C1171      C1172   1.418       .  A
C1172      F1175   1.358       .  S
C1173      C1176   1.403       .  A
C1173      C1180   1.403       .  A
C1176      C1177   1.400       .  A
C1176      F1181   1.358       .  S
C1177      C1178   1.415       .  A
C1177      F1183   1.358       .  S
C1178      C1179   1.413       .  A
C1179      C1180   1.402       .  A
C1179      F1182   1.358       .  S
C1180      F1184   1.358       .  S
C1187      C1188   1.404       .  A
C1187      C1192   1.400       .  A
C1187      F1205   1.358       .  S
C1188      C1193   1.479       .  S
C1188      C1189   1.404       .  A
C1189      C1190   1.401       .  A
C1189      F1194   1.357       .  S
C1190      C1191   1.408       .  A
C1190      F1206   1.358       .  S
C1191      C1192   1.408       .  A
C1192      F1195   1.358       .  S
C1193      C1196   1.401       .  A
C1193      C1200   1.400       .  A
C1196      C1197   1.403       .  A
C1196      F1201   1.358       .  S
C1197      C1198   1.416       .  A
C1197      F1203   1.357       .  S
C1198      C1199   1.417       .  A
C1199      C1200   1.400       .  A
C1199      F1202   1.357       .  S
C1200      F1204   1.358       .  S
C1207      C1208   1.404       .  A
C1207      C1212   1.401   1_556  A
C1207      F1225   1.356       .  S
C1208      C1213   1.494       .  S
C1208      C1209   1.408       .  A
C1209      C1210   1.407       .  A
C1209      F1214   1.358       .  S
C1210      C1211   1.411   1_556  A
C1210      F1226   1.358       .  S
C1211      C1212   1.413       .  A
C1212      F1215   1.357       .  S
C1213      C1216   1.409       .  A
C1213      C1220   1.407       .  A
C1216      C1217   1.405       .  A
C1216      F1221   1.358   1_556  S
C1217      C1218   1.408       .  A
C1217      F1223   1.358       .  S
C1218      C1219   1.409       .  A
C1219      C1220   1.404       .  A
C1219      F1222   1.358       .  S
C1220      F1224   1.358       .  S
C1227      C1228   1.407       .  A
C1227      C1232   1.408       .  A
C1227      F1245   1.357       .  S
C1228      C1233   1.484       .  S
C1228      C1229   1.401       .  A
C1229      C1230   1.397       .  A
C1229      F1234   1.358       .  S
C1230      C1231   1.410       .  A
C1230      F1246   1.358       .  S
C1231      C1232   1.409       .  A
C1232      F1235   1.357   1_655  S
C1233      C1236   1.400       .  A
C1233      C1240   1.406       .  A
C1236      C1237   1.401       .  A
C1236      F1241   1.358       .  S
C1237      C1238   1.415       .  A
C1237      F1243   1.356       .  S
C1238      C1239   1.410       .  A
C1239      C1240   1.404       .  A
C1239      F1242   1.357       .  S
C1240      F1244   1.358       .  S
C1247      C1248   1.404       .  A
C1247      C1252   1.401       .  A
C1247      F1265   1.358       .  S
C1248      C1253   1.492       .  S
C1248      C1249   1.406       .  A
C1249      C1250   1.406       .  A
C1249      F1254   1.358       .  S
C1250      C1251   1.416       .  A
C1250      F1266   1.357       .  S
C1251      C1252   1.416       .  A
C1252      F1255   1.356       .  S
C1253      C1256   1.406       .  A
C1253      C1260   1.405       .  A
C1256      C1257   1.402       .  A
C1256      F1261   1.358       .  S
C1257      C1258   1.413       .  A
C1257      F1263   1.357       .  S
C1258      C1259   1.416       .  A
C1259      C1260   1.404       .  A
C1259      F1262   1.358       .  S
C1260      F1264   1.358       .  S
C1267      C1268   1.404       .  A
C1267      C1272   1.399       .  A
C1267      F1285   1.358       .  S
C1268      C1273   1.489       .  S
C1268      C1269   1.406       .  A
C1269      C1270   1.404       .  A
C1269      F1274   1.358       .  S
C1270      C1271   1.414       .  A
C1270      F1286   1.358       .  S
C1271      C1272   1.413       .  A
C1272      F1275   1.356       .  S
C1273      C1276   1.403       .  A
C1273      C1280   1.405       .  A
C1276      C1277   1.399       .  A
C1276      F1281   1.358       .  S
C1277      C1278   1.414       .  A
C1277      F1283   1.357       .  S
C1278      C1279   1.416       .  A
C1279      C1280   1.404       .  A
C1279      F1282   1.356       .  S
C1280      F1284   1.358       .  S
C1287      C1288   1.410       .  A
C1287      C1292   1.407       .  A
C1287      F1305   1.358       .  S
C1288      C1293   1.493       .  S
C1288      C1289   1.407       .  A
C1289      C1290   1.399       .  A
C1289      F1294   1.358       .  S
C1290      C1291   1.406       .  A
C1290      F1306   1.358       .  S
C1291      C1292   1.408       .  A
C1292      F1295   1.357       .  S
C1293      C1296   1.407       .  A
C1293      C1300   1.408       .  A
C1296      C1297   1.396       .  A
C1296      F1301   1.358       .  S
C1297      C1298   1.409       .  A
C1297      F1303   1.358       .  S
C1298      C1299   1.413   1_565  A
C1299      C1300   1.407   1_545  A
C1299      F1302   1.356       .  S
C1300      F1304   1.358   1_565  S
C1307      C1308   1.408       .  A
C1307      C1312   1.406       .  A
C1307      F1325   1.358       .  S
C1308      C1313   1.498       .  S
C1308      C1309   1.408       .  A
C1309      C1310   1.405       .  A
C1309      F1314   1.358       .  S
C1310      C1311   1.411       .  A
C1310      F1326   1.358       .  S
C1311      C1312   1.410       .  A
C1312      F1315   1.357       .  S
C1313      C1316   1.406       .  A
C1313      C1320   1.409       .  A
C1316      C1317   1.403       .  A
C1316      F1321   1.358       .  S
C1317      C1318   1.412       .  A
C1317      F1323   1.358       .  S
C1318      C1319   1.412       .  A
C1319      C1320   1.407       .  A
C1319      F1322   1.357       .  S
C1320      F1324   1.358       .  S
C1327      C1328   1.405       .  A
C1327      C1332   1.398       .  A
C1327      F1345   1.357       .  S
C1328      C1333   1.472       .  S
C1328      C1329   1.399       .  A
C1329      C1330   1.394       .  A
C1329      F1334   1.358       .  S
C1330      C1331   1.409       .  A
C1330      F1346   1.357       .  S
C1331      C1332   1.409       .  A
C1332      F1335   1.358       .  S
C1333      C1336   1.405       .  A
C1333      C1340   1.399       .  A
C1336      C1337   1.396       .  A
C1336      F1341   1.357       .  S
C1337      C1338   1.404       .  A
C1337      F1343   1.357       .  S
C1338      C1339   1.416       .  A
C1339      C1340   1.393       .  A
C1339      F1342   1.359       .  S
C1340      F1344   1.359       .  S
C1347      C1348   1.408       .  A
C1347      C1352   1.404       .  A
C1347      F1365   1.358       .  S
C1348      C1353   1.485       .  S
C1348      C1349   1.404       .  A
C1349      C1350   1.398       .  A
C1349      F1354   1.358       .  S
C1350      C1351   1.409       .  A
C1350      F1366   1.358       .  S
C1351      C1352   1.409       .  A
C1352      F1355   1.357       .  S
C1353      C1356   1.405       .  A
C1353      C1360   1.406       .  A
C1356      C1357   1.393       .  A
C1356      F1361   1.358       .  S
C1357      C1358   1.411       .  A
C1357      F1363   1.359       .  S
C1358      C1359   1.408       .  A
C1359      C1360   1.402       .  A
C1359      F1362   1.358       .  S
C1360      F1364   1.356       .  S
C1367      C1368   1.407       .  A
C1367      C1372   1.401       .  A
C1367      F1385   1.356       .  S
C1368      C1373   1.486       .  S
C1368      C1369   1.406       .  A
C1369      C1370   1.399       .  A
C1369      F1374   1.358       .  S
C1370      C1371   1.409       .  A
C1370      F1386   1.357       .  S
C1371      C1372   1.408       .  A
C1372      F1375   1.358       .  S
C1373      C1376   1.402       .  A
C1373      C1380   1.407       .  A
C1376      C1377   1.393       .  A
C1376      F1381   1.358       .  S
C1377      C1378   1.413       .  A
C1377      F1383   1.358       .  S
C1378      C1379   1.412       .  A
C1379      C1380   1.406       .  A
C1379      F1382   1.358       .  S
C1380      F1384   1.357       .  S
C1387      C1388   1.406       .  A
C1387      C1392   1.402       .  A
C1387      F1405   1.358       .  S
C1388      C1393   1.495       .  S
C1388      C1389   1.410       .  A
C1389      C1390   1.399       .  A
C1389      F1394   1.356       .  S
C1390      C1391   1.403       .  A
C1390      F1406   1.356       .  S
C1391      C1392   1.418       .  A
C1392      F1395   1.359       .  S
C1393      C1396   1.406       .  A
C1393      C1400   1.411       .  A
C1396      C1397   1.399       .  A
C1396      F1401   1.358       .  S
C1397      C1398   1.409       .  A
C1397      F1403   1.357       .  S
C1398      C1399   1.408       .  A
C1399      C1400   1.405       .  A
C1399      F1402   1.358       .  S
C1400      F1404   1.356       .  S
C1407      C1408   1.409       .  A
C1407      C1412   1.407       .  A
C1407      F1425   1.358       .  S
C1408      C1413   1.487       .  S
C1408      C1409   1.401       .  A
C1409      C1410   1.398       .  A
C1409      F1414   1.358       .  S
C1410      C1411   1.414       .  A
C1410      F1426   1.357       .  S
C1411      C1412   1.410       .  A
C1412      F1415   1.357       .  S
C1413      C1416   1.404       .  A
C1413      C1420   1.403       .  A
C1416      C1417   1.398       .  A
C1416      F1421   1.358       .  S
C1417      C1418   1.413       .  A
C1417      F1423   1.358       .  S
C1418      C1419   1.412       .  A
C1419      C1420   1.405       .  A
C1419      F1422   1.358       .  S
C1420      F1424   1.356       .  S
C1427      C1428   1.404       .  A
C1427      C1432   1.398       .  A
C1427      F1445   1.358       .  S
C1428      C1433   1.478       .  S
C1428      C1429   1.404       .  A
C1429      C1430   1.394       .  A
C1429      F1434   1.358       .  S
C1430      C1431   1.409       .  A
C1430      F1446   1.358       .  S
C1431      C1432   1.410       .  A
C1432      F1435   1.358       .  S
C1433      C1436   1.403       .  A
C1433      C1440   1.403       .  A
C1436      C1437   1.394       .  A
C1436      F1441   1.354       .  S
C1437      C1438   1.406       .  A
C1437      F1443   1.358       .  S
C1438      C1439   1.411       .  A
C1439      C1440   1.400       .  A
C1439      F1442   1.357       .  S
C1440      F1444   1.358       .  S
C1447      C1448   1.406       .  A
C1447      C1452   1.402       .  A
C1447      F1465   1.358       .  S
C1448      C1453   1.491       .  S
C1448      C1449   1.405       .  A
C1449      C1450   1.403       .  A
C1449      F1454   1.358       .  S
C1450      C1451   1.412       .  A
C1450      F1466   1.357       .  S
C1451      C1452   1.414       .  A
C1452      F1455   1.358       .  S
C1453      C1456   1.408       .  A
C1453      C1460   1.405       .  A
C1456      C1457   1.403       .  A
C1456      F1461   1.357       .  S
C1457      C1458   1.408       .  A
C1457      F1463   1.357       .  S
C1458      C1459   1.412       .  A
C1459      C1460   1.401       .  A
C1459      F1462   1.358       .  S
C1460      F1464   1.358       .  S
C1467      C1468   1.406       .  A
C1467      C1472   1.405       .  A
C1467      F1485   1.358       .  S
C1468      C1473   1.499       .  S
C1468      C1469   1.407       .  A
C1469      C1470   1.410       .  A
C1469      F1474   1.358       .  S
C1470      C1471   1.417       .  A
C1470      F1486   1.358       .  S
C1471      C1472   1.412       .  A
C1472      F1475   1.356       .  S
C1473      C1476   1.410       .  A
C1473      C1480   1.405       .  A
C1476      C1477   1.411       .  A
C1476      F1481   1.357       .  S
C1477      C1478   1.411       .  A
C1477      F1483   1.357       .  S
C1478      C1479   1.413       .  A
C1479      C1480   1.403       .  A
C1479      F1482   1.358       .  S
C1480      F1484   1.358       .  S
C1487      C1488   1.401       .  A
C1487      C1492   1.397       .  A
C1487      F1505   1.358       .  S
C1488      C1493   1.473       .  S
C1488      C1489   1.403       .  A
C1489      C1490   1.399       .  A
C1489      F1494   1.359       .  S
C1490      C1491   1.411       .  A
C1490      F1506   1.357       .  S
C1491      C1492   1.410       .  A
C1492      F1495   1.357       .  S
C1493      C1496   1.404       .  A
C1493      C1500   1.399       .  A
C1496      C1497   1.400       .  A
C1496      F1501   1.356       .  S
C1497      C1498   1.405       .  A
C1497      F1503   1.357       .  S
C1498      C1499   1.418       .  A
C1499      C1500   1.389       .  A
C1499      F1502   1.360       .  S
C1500      F1504   1.359       .  S
C1507      C1508   1.398       .  A
C1507      C1512   1.397       .  A
C1507      F1525   1.359       .  S
C1508      C1513   1.476       .  S
C1508      C1509   1.405       .  A
C1509      C1510   1.402       .  A
C1509      F1514   1.357       .  S
C1510      C1511   1.405       .  A
C1510      F1526   1.357       .  S
C1511      C1512   1.421       .  A
C1512      F1515   1.359       .  S
C1513      C1516   1.402       .  A
C1513      C1520   1.405       .  A
C1516      C1517   1.401       .  A
C1516      F1521   1.358       .  S
C1517      C1518   1.407       .  A
C1517      F1523   1.358       .  S
C1518      C1519   1.405       .  A
C1519      C1520   1.401       .  A
C1519      F1522   1.358       .  S
C1520      F1524   1.358       .  S
C1527      C1528   1.405       .  A
C1527      C1532   1.397       .  A
C1527      F1545   1.357       .  S
C1528      C1533   1.481       .  S
C1528      C1529   1.407       .  A
C1529      C1530   1.397       .  A
C1529      F1534   1.358       .  S
C1530      C1531   1.405       .  A
C1530      F1546   1.359       .  S
C1531      C1532   1.405       .  A
C1532      F1535   1.358       .  S
C1533      C1536   1.407       .  A
C1533      C1540   1.405       .  A
C1536      C1537   1.403       .  A
C1536      F1541   1.358       .  S
C1537      C1538   1.407       .  A
C1537      F1543   1.357       .  S
C1538      C1539   1.405       .  A
C1539      C1540   1.393       .  A
C1539      F1542   1.358       .  S
C1540      F1544   1.359       .  S
C1547      C1548   1.406       .  A
C1547      C1552   1.404       .  A
C1547      F1565   1.358       .  S
C1548      C1553   1.488       .  S
C1548      C1549   1.402       .  A
C1549      C1550   1.403       .  A
C1549      F1554   1.358       .  S
C1550      C1551   1.417       .  A
C1550      F1566   1.358       .  S
C1551      C1552   1.412       .  A
C1552      F1555   1.357       .  S
C1553      C1556   1.407       .  A
C1553      C1560   1.401       .  A
C1556      C1557   1.405       .  A
C1556      F1561   1.357       .  S
C1557      C1558   1.412       .  A
C1557      F1563   1.358       .  S
C1558      C1559   1.416       .  A
C1559      C1560   1.400       .  A
C1559      F1562   1.358       .  S
C1560      F1564   1.358       .  S
C1567      C1568   1.409       .  A
C1567      C1572   1.399       .  A
C1567      F1585   1.356       .  S
C1568      C1573   1.499       .  S
C1568      C1569   1.408       .  A
C1569      C1570   1.409       .  A
C1569      F1574   1.359       .  S
C1570      C1571   1.422       .  A
C1570      F1586   1.360       .  S
C1571      C1572   1.402       .  A
C1572      F1575   1.356       .  S
C1573      C1576   1.409       .  A
C1573      C1580   1.406       .  A
C1576      C1577   1.407       .  A
C1576      F1581   1.355       .  S
C1577      C1578   1.412       .  A
C1577      F1583   1.358       .  S
C1578      C1579   1.412       .  A
C1579      C1580   1.401       .  A
C1579      F1582   1.357       .  S
C1580      F1584   1.358       .  S
C1587      C1588   1.407       .  A
C1587      C1592   1.401       .  A
C1587      F1605   1.356       .  S
C1588      C1593   1.480       .  S
C1588      C1589   1.401       .  A
C1589      C1590   1.390       .  A
C1589      F1594   1.358       .  S
C1590      C1591   1.413       .  A
C1590      F1606   1.359       .  S
C1591      C1592   1.407       .  A
C1592      F1595   1.358       .  S
C1593      C1596   1.405       .  A
C1593      C1600   1.405       .  A
C1596      C1597   1.397       .  A
C1596      F1601   1.358       .  S
C1597      C1598   1.408       .  A
C1597      F1603   1.357       .  S
C1598      C1599   1.409       .  A
C1599      C1600   1.399       .  A
C1599      F1602   1.358       .  S
C1600      F1604   1.358       .  S
C1607      C1608   1.410       .  A
C1607      C1612   1.407       .  A
C1607      F1625   1.357       .  S
C1608      C1613   1.499       .  S
C1608      C1609   1.409       .  A
C1609      C1610   1.402       .  A
C1609      F1614   1.358       .  S
C1610      C1611   1.408       .  A
C1610      F1626   1.358       .  S
C1611      C1612   1.409       .  A
C1612      F1615   1.357       .  S
C1613      C1616   1.411       .  A
C1613      C1620   1.408       .  A
C1616      C1617   1.410       .  A
C1616      F1621   1.357       .  S
C1617      C1618   1.410       .  A
C1617      F1623   1.358       .  S
C1618      C1619   1.408       .  A
C1619      C1620   1.399       .  A
C1619      F1622   1.358       .  S
C1620      F1624   1.358       .  S
C1627      C1628   1.403       .  A
C1627      C1632   1.402       .  A
C1627      F1645   1.358       .  S
C1628      C1633   1.492       .  S
C1628      C1629   1.409       .  A
C1629      C1630   1.406       .  A
C1629      F1634   1.357       .  S
C1630      C1631   1.410       .  A
C1630      F1646   1.358       .  S
C1631      C1632   1.414       .  A
C1632      F1635   1.358       .  S
C1633      C1636   1.404       .  A
C1633      C1640   1.407       .  A
C1636      C1637   1.403       .  A
C1636      F1641   1.358       .  S
C1637      C1638   1.416       .  A
C1637      F1643   1.358       .  S
C1638      C1639   1.411       .  A
C1639      C1640   1.405       .  A
C1639      F1642   1.357       .  S
C1640      F1644   1.358       .  S
C1647      C1648   1.409       .  A
C1647      C1652   1.409       .  A
C1647      F1665   1.355   1_545  S
C1648      C1653   1.496       .  S
C1648      C1649   1.407       .  A
C1649      C1650   1.398       .  A
C1649      F1654   1.358       .  S
C1650      C1651   1.407       .  A
C1650      F1666   1.358       .  S
C1651      C1652   1.410       .  A
C1652      F1655   1.357   1_545  S
C1653      C1656   1.410       .  A
C1653      C1660   1.409       .  A
C1656      C1657   1.410       .  A
C1656      F1661   1.357       .  S
C1657      C1658   1.409       .  A
C1657      F1663   1.358       .  S
C1658      C1659   1.405       .  A
C1659      C1660   1.398       .  A
C1659      F1662   1.358       .  S
C1660      F1664   1.358       .  S
C1667      C1668   1.412       .  A
C1667      C1672   1.411       .  A
C1667      F1685   1.358       .  S
C1668      C1673   1.506       .  S
C1668      C1669   1.410       .  A
C1669      C1670   1.401       .  A
C1669      F1674   1.358       .  S
C1670      C1671   1.409       .  A
C1670      F1686   1.358       .  S
C1671      C1672   1.413       .  A
C1672      F1675   1.358       .  S
C1673      C1676   1.407       .  A
C1673      C1680   1.410       .  A
C1676      C1677   1.403       .  A
C1676      F1681   1.358       .  S
C1677      C1678   1.415       .  A
C1677      F1683   1.357       .  S
C1678      C1679   1.415       .  A
C1679      C1680   1.408       .  A
C1679      F1682   1.358       .  S
C1680      F1684   1.356       .  S
C1687      C1688   1.411       .  A
C1687      C1692   1.411       .  A
C1687      F1705   1.358       .  S
C1688      C1693   1.494       .  S
C1688      C1689   1.401       .  A
C1689      C1690   1.402       .  A
C1689      F1694   1.358       .  S
C1690      C1691   1.417       .  A
C1690      F1706   1.357       .  S
C1691      C1692   1.410       .  A
C1692      F1695   1.357       .  S
C1693      C1696   1.408       .  A
C1693      C1700   1.406       .  A
C1696      C1697   1.404       .  A
C1696      F1701   1.358       .  S
C1697      C1698   1.408       .  A
C1697      F1703   1.358       .  S
C1698      C1699   1.409       .  A
C1699      C1700   1.407       .  A
C1699      F1702   1.357       .  S
C1700      F1704   1.357       .  S
C1707      C1708   1.402       .  A
C1707      C1712   1.397       .  A
C1707      F1725   1.358       .  S
C1708      C1713   1.485       .  S
C1708      C1709   1.406       .  A
C1709      C1710   1.405       .  A
C1709      F1714   1.358       .  S
C1710      C1711   1.412       .  A
C1710      F1726   1.357       .  S
C1711      C1712   1.413       .  A
C1712      F1715   1.358   1_565  S
C1713      C1716   1.406       .  A
C1713      C1720   1.403       .  A
C1716      C1717   1.402       .  A
C1716      F1721   1.358       .  S
C1717      C1718   1.410       .  A
C1717      F1723   1.357       .  S
C1718      C1719   1.414       .  A
C1719      C1720   1.400       .  A
C1719      F1722   1.358       .  S
C1720      F1724   1.358       .  S
C1727      C1728   1.408       .  A
C1727      C1732   1.400       .  A
C1727      F1745   1.358       .  S
C1728      C1733   1.488       .  S
C1728      C1729   1.407       .  A
C1729      C1730   1.401       .  A
C1729      F1734   1.358       .  S
C1730      C1731   1.406       .  A
C1730      F1746   1.358       .  S
C1731      C1732   1.407       .  A
C1732      F1735   1.358       .  S
C1733      C1736   1.406       .  A
C1733      C1740   1.404       .  A
C1736      C1737   1.402       .  A
C1736      F1741   1.358       .  S
C1737      C1738   1.410       .  A
C1737      F1743   1.358       .  S
C1738      C1739   1.408       .  A
C1739      C1740   1.398       .  A
C1739      F1742   1.356       .  S
C1740      F1744   1.354       .  S
C1747      C1748   1.403       .  A
C1747      C1752   1.400       .  A
C1747      F1765   1.358       .  S
C1748      C1753   1.499       .  S
C1748      C1749   1.410       .  A
C1749      C1750   1.409       .  A
C1749      F1754   1.353       .  S
C1750      C1751   1.410       .  A
C1750      F1766   1.357       .  S
C1751      C1752   1.416       .  A
C1752      F1755   1.357       .  S
C1753      C1756   1.407       .  A
C1753      C1760   1.408       .  A
C1756      C1757   1.409       .  A
C1756      F1761   1.357       .  S
C1757      C1758   1.413       .  A
C1757      F1763   1.357       .  S
C1758      C1759   1.413       .  A
C1759      C1760   1.403       .  A
C1759      F1762   1.358       .  S
C1760      F1764   1.358       .  S
C1767      C1768   1.402       .  A
C1767      C1772   1.405       .  A
C1767      F1785   1.358       .  S
C1768      C1773   1.495       .  S
C1768      C1769   1.410       .  A
C1769      C1770   1.409       .  A
C1769      F1774   1.357       .  S
C1770      C1771   1.408       .  A
C1770      F1786   1.357       .  S
C1771      C1772   1.415       .  A
C1772      F1775   1.357       .  S
C1773      C1776   1.407       .  A
C1773      C1780   1.404       .  A
C1776      C1777   1.409       .  A
C1776      F1781   1.357       .  S
C1777      C1778   1.413       .  A
C1777      F1783   1.358       .  S
C1778      C1779   1.411       .  A
C1779      C1780   1.404       .  A
C1779      F1782   1.353       .  S
C1780      F1784   1.358       .  S
C1787      C1788   1.411       .  A
C1787      C1792   1.405       .  A
C1787      F1805   1.358       .  S
C1788      C1793   1.495       .  S
C1788      C1789   1.406       .  A
C1789      C1790   1.402       .  A
C1789      F1794   1.358   1_565  S
C1790      C1791   1.406       .  A
C1790      F1806   1.352   1_565  S
C1791      C1792   1.405       .  A
C1792      F1795   1.358       .  S
C1793      C1796   1.406       .  A
C1793      C1800   1.410       .  A
C1796      C1797   1.399       .  A
C1796      F1801   1.358       .  S
C1797      C1798   1.411       .  A
C1797      F1803   1.358       .  S
C1798      C1799   1.409       .  A
C1799      C1800   1.407       .  A
C1799      F1802   1.357       .  S
C1800      F1804   1.357       .  S
