geometry optimzed in LAMMPS
_audit_creation_date              2020-11-30 
_audit_creation_method            'lammps2cif' 
_symmetry_space_group_name_H-M    'P1' 
_symmetry_Int_Tables_number       1 
_symmetry_cell_setting            triclinic 
loop_ 
_symmetry_equiv_pos_as_xyz 
  x,y,z 
_cell_length_a                    65.06668778 
_cell_length_b                    65.60714039051372 
_cell_length_c                    65.32324667107095 
_cell_angle_alpha                 90.21691033619405 
_cell_angle_beta                  89.97912283058655 
_cell_angle_gamma                 90.37553398836435 
loop_ 
_atom_site_label 
_atom_site_type_symbol 
_atom_site_fract_x 
_atom_site_fract_y 
_atom_site_fract_z 
_atom_site_charge 
C1          C  0.33409506  0.65404253  0.15030925     0.88100
C2          C  0.32080965  0.64054262  0.13617960    -0.52100
C3          C  0.33177789  0.62760884  0.12426431     0.11000
C4          C  0.35497162  0.62908318  0.12722158     0.22000
C5          C  0.34776723  0.63901038  0.16233603    -0.52800
C6          C  0.35849059  0.62586210  0.15013247     0.11200
C7          C  0.34950189  0.66470244  0.13566830    -0.52400
C8          C  0.36029503  0.65149878  0.12370690     0.11700
H9          H  0.30412507  0.64114828  0.13566611     0.16200
H10         H  0.36369290  0.61845393  0.11723653     0.02000
H11         H  0.34886823  0.63884515  0.17892193     0.16500
H12         H  0.35299671  0.68082011  0.13500956     0.16300
C13         C  0.67622584  0.35259252  0.15280592     0.88100
C14         C  0.69056700  0.36495722  0.13873530    -0.52100
C15         C  0.68051477  0.37648981  0.12473673     0.11000
C16         C  0.65702300  0.37494704  0.12598169     0.22000
C17         C  0.66165613  0.36867084  0.16236236    -0.52800
C18         C  0.65155626  0.38027661  0.14823368     0.11200
C19         C  0.66201614  0.34052272  0.13823344    -0.52400
C20         C  0.65208468  0.35213511  0.12416954     0.11700
H21         H  0.70722623  0.36440671  0.13959819     0.16200
H22         H  0.64886595  0.38434648  0.11451335     0.02000
H23         H  0.65846633  0.37057041  0.17836281     0.16500
H24         H  0.65996715  0.32409156  0.13907280     0.16300
C25         C  0.66536457  0.66089367  0.14248328     0.88100
C26         C  0.64871062  0.67129459  0.12918285    -0.52100
C27         C  0.63732668  0.65787279  0.11780415     0.11000
C28         C  0.64374959  0.63561320  0.12012673     0.22000
C29         C  0.65341825  0.64469792  0.15483949    -0.52800
C30         C  0.64227766  0.63147369  0.14310309     0.11200
C31         C  0.67804372  0.64875065  0.12673410    -0.52400
C32         C  0.66681412  0.63535230  0.11526241     0.11700
H33         H  0.64571025  0.68744901  0.12823213     0.16200
H34         H  0.63439672  0.62488927  0.11072646     0.02000
H35         H  0.65380772  0.64378956  0.17144145     0.16500
H36         H  0.69456457  0.65051273  0.12495801     0.16300
C37         C  0.34173025  0.33829971  0.15472646     0.88100
C38         C  0.35606565  0.32697012  0.13961566    -0.52100
C39         C  0.36665291  0.33963163  0.12683257     0.11000
C40         C  0.36261358  0.36227562  0.13064538     0.22000
C41         C  0.35668622  0.35289195  0.16607320    -0.52800
C42         C  0.36748572  0.36539635  0.15334397     0.11200
C43         C  0.32832837  0.35210741  0.14136083    -0.52400
C44         C  0.33929316  0.36472625  0.12893385     0.11700
H45         H  0.35874564  0.31070436  0.13958488     0.16200
H46         H  0.37154852  0.37255731  0.12043625     0.02000
H47         H  0.35925146  0.35276153  0.18248866     0.16500
H48         H  0.31165651  0.35222140  0.14205552     0.16300
O49         O  0.52296053  0.52192641  0.14781195    -0.72800
O50         O  0.48169960  0.48023687  0.14922410    -0.72800
O51         O  0.48131941  0.52134538  0.14885754    -0.72900
O52         O  0.52332221  0.48082541  0.14805482    -0.72900
O53         O  0.52447235  0.48129972  0.18210082    -0.72900
O54         O  0.48198524  0.52161329  0.18293333    -0.72800
O55         O  0.48271903  0.48045985  0.18326501    -0.72800
O56         O  0.52379046  0.52247769  0.18185494    -0.72900
Ni57       Ni  0.50228912  0.50107299  0.14728901     1.25400
Ni58       Ni  0.50327010  0.50148263  0.18375811     1.25400
C59         C  0.53039460  0.52897843  0.16457833     0.89400
C60         C  0.47524613  0.47352380  0.16647343     0.89300
C61         C  0.47449872  0.52801361  0.16599939     0.89300
C62         C  0.53106004  0.47451538  0.16489126     0.89500
C63         C  0.35274015  0.33648843  0.83417474     0.88100
C64         C  0.33847719  0.35072727  0.84627629    -0.52100
C65         C  0.34855592  0.36360494  0.85927433     0.11000
C66         C  0.37194997  0.36101874  0.85931561     0.22000
C67         C  0.36865566  0.35068296  0.82374272    -0.52800
C68         C  0.37857418  0.36352948  0.83695475     0.11200
C69         C  0.36576829  0.32550038  0.85053531    -0.52400
C70         C  0.37542281  0.33841313  0.86388693     0.11700
H71         H  0.32188048  0.35077823  0.84449679     0.16200
H72         H  0.38011431  0.37150697  0.87000774     0.02000
H73         H  0.37274798  0.34994426  0.80765796     0.16500
H74         H  0.36779278  0.30912065  0.85127821     0.16300
C75         C  0.66983807  0.33840756  0.83576503     0.88100
C76         C  0.65662801  0.35479673  0.82502207    -0.52100
C77         C  0.64716379  0.36787724  0.83829490     0.11000
C78         C  0.65115602  0.36314674  0.86087907     0.22000
C79         C  0.68434078  0.35045315  0.84992211    -0.52800
C80         C  0.67457504  0.36332173  0.86299306     0.11200
C81         C  0.65421816  0.32782837  0.85010722    -0.52400
C82         C  0.64449894  0.34079304  0.86324423     0.11700
H83         H  0.65389215  0.35570413  0.80872612     0.16200
H84         H  0.64335121  0.37370848  0.87165802     0.02000
H85         H  0.70097895  0.34923729  0.84931857     0.16500
H86         H  0.65055861  0.31167005  0.84935556     0.16300
C87         C  0.66667242  0.66835324  0.83748361     0.88100
C88         C  0.65356828  0.65237691  0.82568357    -0.52100
C89         C  0.64345116  0.63880407  0.83798307     0.11000
C90         C  0.64784502  0.64201141  0.86086972     0.22000
C91         C  0.65176433  0.67800681  0.85294910    -0.52800
C92         C  0.64182779  0.66419725  0.86510247     0.11200
C93         C  0.68119557  0.65499683  0.85031291    -0.52400
C94         C  0.67131695  0.64154007  0.86268232     0.11700
H95         H  0.65294918  0.65098285  0.80918584     0.16200
H96         H  0.63980481  0.63091019  0.87088338     0.02000
H97         H  0.64910780  0.69430262  0.85393517     0.16500
H98         H  0.69785114  0.65562303  0.84932083     0.16300
C99         C  0.33586023  0.64701355  0.82866453     0.88100
C100        C  0.32509232  0.63005671  0.84104294    -0.52100
C101        C  0.33760174  0.62048838  0.85455185     0.11000
C102        C  0.35991132  0.62790857  0.85391815     0.22000
C103        C  0.34631540  0.66094952  0.84458634    -0.52800
C104        C  0.35878173  0.65086645  0.85775386     0.11200
C105        C  0.35366421  0.63553717  0.81807994    -0.52400
C106        C  0.36643561  0.62571004  0.83140037     0.11700
H107        H  0.30917248  0.62544400  0.83909905     0.16200
H108        H  0.36994487  0.61991067  0.86498427     0.02000
H109        H  0.34405887  0.67732101  0.84534512     0.16500
H110        H  0.35584835  0.63489194  0.80164355     0.16300
O111        O  0.29498861  0.47215156  0.97161357    -0.72800
O112        O  0.28995576  0.51313118  0.01321670    -0.72800
O113        O  0.29233306  0.51347189  0.97181665    -0.72900
O114        O  0.29285908  0.47190373  0.01306828    -0.72900
O115        O  0.32698800  0.47418776  0.01416603    -0.72900
O116        O  0.32640082  0.51622408  0.97449340    -0.72800
O117        O  0.32415377  0.51482692  0.01558699    -0.72800
O118        O  0.32903343  0.47519112  0.97312921    -0.72900
Ni119      Ni  0.29126409  0.49258245  0.99233651     1.25400
Ni120      Ni  0.32781982  0.49520923  0.99436024     1.25400
C121        C  0.31289926  0.46678130  0.96558385     0.89400
C122        C  0.30628931  0.52039897  0.02146081     0.89300
C123        C  0.30939244  0.52186553  0.96661519     0.89300
C124        C  0.31017247  0.46616045  0.02036927     0.89500
O125        O  0.47442518  0.65710573  0.00860970    -0.72800
O126        O  0.51652430  0.65931796  0.96817854    -0.72800
O127        O  0.51589708  0.65792804  0.00940836    -0.72900
O128        O  0.47510693  0.65843147  0.96757798    -0.72900
O129        O  0.47438462  0.69230092  0.96855874    -0.72900
O130        O  0.51546270  0.69181849  0.01092352    -0.72800
O131        O  0.51619087  0.69324303  0.96939854    -0.72800
O132        O  0.47370893  0.69100902  0.00990897    -0.72900
Ni133      Ni  0.49552731  0.65703283  0.98840454     1.25400
Ni134      Ni  0.49494062  0.69334348  0.98973927     1.25400
C135        C  0.46689833  0.67362723  0.01577440     0.89400
C136        C  0.52335428  0.67659191  0.96207961     0.89300
C137        C  0.52255151  0.67469376  0.01707890     0.89300
C138        C  0.46773599  0.67531163  0.96126843     0.89500
O139        O  0.69145681  0.47954190  0.00428072    -0.72800
O140        O  0.69024192  0.52234112  0.96530798    -0.72800
O141        O  0.69274836  0.48161321  0.96306232    -0.72900
O142        O  0.68915728  0.52029638  0.00656292    -0.72900
O143        O  0.72332434  0.52308688  0.00735205    -0.72900
O144        O  0.72699457  0.48293642  0.96463088    -0.72800
O145        O  0.72444319  0.52441480  0.96578625    -0.72800
O146        O  0.72557363  0.48172554  0.00621161    -0.72900
Ni147      Ni  0.68974596  0.50087269  0.98475658     1.25400
Ni148      Ni  0.72637063  0.50312007  0.98600732     1.25400
C149        C  0.70847595  0.47380121  0.01208121     0.89400
C150        C  0.70700140  0.53033607  0.95889101     0.89300
C151        C  0.71039376  0.47579273  0.95678005     0.89300
C152        C  0.70557523  0.52807172  0.01415794     0.89500
O153        O  0.48928685  0.30481130  0.97931252    -0.72800
O154        O  0.53112368  0.30440872  0.02057843    -0.72800
O155        O  0.48933888  0.30466187  0.02086428    -0.72900
O156        O  0.53099047  0.30463152  0.97923173    -0.72900
O157        O  0.53156746  0.33854795  0.98005083    -0.72900
O158        O  0.48943244  0.33857177  0.02065397    -0.72800
O159        O  0.53076191  0.33842212  0.02134612    -0.72800
O160        O  0.49005290  0.33870067  0.97936144    -0.72900
Ni161      Ni  0.51014820  0.30338973  0.99999836     1.25400
Ni162      Ni  0.51046465  0.33974233  0.00035009     1.25400
C163        C  0.48279066  0.32185917  0.97241693     0.89400
C164        C  0.53778261  0.32141637  0.02770212     0.89300
C165        C  0.48245286  0.32168487  0.02761660     0.89300
C166        C  0.53831769  0.32166169  0.97290796     0.89500
O167        O  0.49182678  0.48077181  0.83145491    -0.72800
O168        O  0.53040556  0.52479194  0.82961646    -0.72800
O169        O  0.48919356  0.52155488  0.82931892    -0.72900
O170        O  0.53308048  0.48372041  0.83195129    -0.72900
O171        O  0.53348884  0.48116026  0.79800357    -0.72900
O172        O  0.48958353  0.52024287  0.79524988    -0.72800
O173        O  0.53144116  0.52261592  0.79557273    -0.72800
O174        O  0.49177691  0.47890109  0.79745005    -0.72900
Ni175      Ni  0.51115602  0.50278659  0.83172795     1.25400
Ni176      Ni  0.51162539  0.50067784  0.79529398     1.25400
C177        C  0.48522082  0.47262206  0.81485487     0.89400
C178        C  0.53721029  0.53108973  0.81235351     0.89300
C179        C  0.48193556  0.52705774  0.81203391     0.89300
C180        C  0.54035308  0.47579511  0.81559104     0.89500
C181        C  0.66297620  0.15344060  0.65109732     0.88100
C182        C  0.64677421  0.14085225  0.66286113    -0.52100
C183        C  0.63510028  0.12847275  0.65068452     0.11000
C184        C  0.64083466  0.12933986  0.62800023     0.22000
C185        C  0.67554041  0.13770870  0.63885151    -0.52800
C186        C  0.66389271  0.12497100  0.62707594     0.11200
C187        C  0.65067413  0.16460692  0.63416386    -0.52400
C188        C  0.63910270  0.15182661  0.62223768     0.11700
H189        H  0.64444231  0.14203276  0.67928108     0.16200
H190        H  0.63138595  0.11902925  0.61821660     0.02000
H191        H  0.69219146  0.13686110  0.63925350     0.16500
H192        H  0.65168053  0.18058794  0.63055292     0.16300
C193        C  0.66699195  0.14961080  0.32119444     0.88100
C194        C  0.68002431  0.13535854  0.33461810    -0.52100
C195        C  0.66876519  0.12356185  0.34761123     0.11000
C196        C  0.64561444  0.12710261  0.34641303     0.22000
C197        C  0.65108728  0.13525638  0.31057367    -0.52800
C198        C  0.63996502  0.12353524  0.32392703     0.11200
C199        C  0.65362340  0.16184021  0.33641371    -0.52400
C200        C  0.64274733  0.14998980  0.34968890     0.11700
H201        H  0.69666916  0.13450682  0.33370532     0.16200
H202        H  0.63672851  0.11755681  0.35734707     0.02000
H203        H  0.64747233  0.13497955  0.29445531     0.16500
H204        H  0.65266794  0.17835033  0.33652346     0.16300
C205        C  0.33734723  0.15747224  0.63810618     0.88100
C206        C  0.34923846  0.14117473  0.65035283    -0.52100
C207        C  0.36022426  0.12799640  0.63842274     0.11000
C208        C  0.35883351  0.13262972  0.61549185     0.22000
C209        C  0.35459580  0.16797962  0.62552618    -0.52800
C210        C  0.36574275  0.15490252  0.61372164     0.11200
C211        C  0.32450831  0.14525816  0.62247071    -0.52400
C212        C  0.33584036  0.13238497  0.61067359     0.11700
H213        H  0.34912228  0.14024303  0.66693850     0.16200
H214        H  0.36785472  0.12215436  0.60562880     0.02000
H215        H  0.35916787  0.18380872  0.62706992     0.16500
H216        H  0.30791399  0.14640004  0.62114869     0.16300
C217        C  0.34282883  0.14488839  0.32568704     0.88100
C218        C  0.35812588  0.15743511  0.33890458    -0.52100
C219        C  0.37109206  0.14581948  0.35041176     0.11000
C220        C  0.36720899  0.12281117  0.34811865     0.22000
C221        C  0.35634980  0.13006997  0.31335792    -0.52800
C222        C  0.36894150  0.11854110  0.32518943     0.11200
C223        C  0.33162244  0.13147691  0.34171320    -0.52400
C224        C  0.34445040  0.11981666  0.35315856     0.11700
H225        H  0.35879497  0.17397077  0.33895008     0.16200
H226        H  0.37746952  0.11314312  0.35751765     0.02000
H227        H  0.35598682  0.12883069  0.29678226     0.16500
H228        H  0.31536750  0.13173123  0.34502140     0.16300
O229        O  0.48662980  0.18820424  0.50526484    -0.72800
O230        O  0.52771788  0.18735166  0.46299878    -0.72800
O231        O  0.48581156  0.18834450  0.46367555    -0.72900
O232        O  0.52821493  0.18719098  0.50460198    -0.72900
O233        O  0.52733046  0.15328012  0.50402055    -0.72900
O234        O  0.48487756  0.15441703  0.46383570    -0.72800
O235        O  0.52633750  0.15339413  0.46248296    -0.72800
O236        O  0.48594307  0.15425943  0.50499483    -0.72900
Ni237      Ni  0.50715913  0.18901312  0.48410373     1.25400
Ni238      Ni  0.50612770  0.15266714  0.48380458     1.25400
C239        C  0.47949855  0.17128211  0.51209256     0.89400
C240        C  0.53372742  0.17021072  0.45572443     0.89300
C241        C  0.47807671  0.17145099  0.45728105     0.89300
C242        C  0.53455228  0.16999744  0.51130198     0.89500
C243        C  0.67319288  0.83377737  0.33552079     0.88100
C244        C  0.66308190  0.82399256  0.35467585    -0.52100
C245        C  0.65267774  0.83753808  0.36663129     0.11000
C246        C  0.65354287  0.85942076  0.35884998     0.22000
C247        C  0.65557637  0.84505948  0.32465711    -0.52800
C248        C  0.64522600  0.85831711  0.33701114     0.11200
C249        C  0.68689991  0.85079025  0.34474825    -0.52400
C250        C  0.67645053  0.86437859  0.35656329     0.11700
H251        H  0.66423235  0.80825238  0.35919950     0.16200
H252        H  0.64513534  0.87030597  0.36881224     0.02000
H253        H  0.65150348  0.84252136  0.30872407     0.16500
H254        H  0.70331848  0.85208821  0.34204935     0.16300
C255        C  0.35415755  0.81545090  0.34094567     0.88100
C256        C  0.34066859  0.82979965  0.35391226    -0.52100
C257        C  0.35148883  0.84288301  0.36597033     0.11000
C258        C  0.37477289  0.84023032  0.36472206     0.22000
C259        C  0.36938401  0.82957744  0.32956432    -0.52800
C260        C  0.38010445  0.84259182  0.34199696     0.11200
C261        C  0.36775386  0.80451574  0.35699425    -0.52400
C262        C  0.37843846  0.81765184  0.36942268     0.11700
H263        H  0.32400264  0.83013408  0.35300171     0.16200
H264        H  0.38325885  0.85098229  0.37486491     0.02000
H265        H  0.37141725  0.82924704  0.31306345     0.16500
H266        H  0.36913958  0.78837283  0.35905573     0.16300
C267        C  0.34222072  0.82999059  0.65203866     0.88100
C268        C  0.35816703  0.81841864  0.63875770    -0.52100
C269        C  0.36962303  0.83084688  0.62645589     0.11000
C270        C  0.36439389  0.85342940  0.62846994     0.22000
C271        C  0.35575136  0.84565000  0.66371095    -0.52800
C272        C  0.36693759  0.85812333  0.65126984     0.11200
C273        C  0.32961904  0.84268189  0.63679534    -0.52400
C274        C  0.34129300  0.85475097  0.62439551     0.11700
H275        H  0.36117412  0.80222988  0.63983438     0.16200
H276        H  0.37388736  0.86337404  0.61842332     0.02000
H277        H  0.35700482  0.84655942  0.68025104     0.16500
H278        H  0.31287413  0.84195151  0.63574302     0.16300
C279        C  0.67333264  0.85638200  0.66550625     0.88100
C280        C  0.65905045  0.84566467  0.64979238    -0.52100
C281        C  0.64734714  0.85869989  0.63857118     0.11000
C282        C  0.65035264  0.88111829  0.64444334     0.22000
C283        C  0.68545103  0.87226314  0.65296288    -0.52800
C284        C  0.67343200  0.88513054  0.64183862     0.11200
C285        C  0.65804106  0.86885996  0.67865275    -0.52400
C286        C  0.64624515  0.88184415  0.66747277     0.11700
H287        H  0.65838315  0.82926588  0.64759223     0.16200
H288        H  0.64029218  0.89146128  0.63558168     0.02000
H289        H  0.70212750  0.87275519  0.65244391     0.16500
H290        H  0.65506423  0.86648872  0.69477740     0.16300
O291        O  0.67726827  0.01613645  0.46667666    -0.72800
O292        O  0.67803811  0.97726555  0.50982046    -0.72800
O293        O  0.67623070  0.01812718  0.50792619    -0.72900
O294        O  0.67939575  0.97522196  0.46856263    -0.72900
O295        O  0.71358659  0.97719323  0.46931189    -0.72900
O296        O  0.71039319  0.02005866  0.50888399    -0.72800
O297        O  0.71218340  0.97897789  0.51094118    -0.72800
O298        O  0.71139743  0.01832691  0.46730840    -0.72900
Ni299      Ni  0.67655365  0.99661284  0.48819646     1.25400
Ni300      Ni  0.71314336  0.99869065  0.48912779     1.25400
C301        C  0.69404741  0.02372872  0.45978813     0.89400
C302        C  0.69509727  0.97185313  0.51778894     0.89300
C303        C  0.69277633  0.02601489  0.51513478     0.89300
C304        C  0.69700718  0.96926523  0.46226800     0.89500
O305        O  0.47579980  0.01528988  0.65388708    -0.72800
O306        O  0.51785676  0.97552573  0.66052470    -0.72800
O307        O  0.47676999  0.97418728  0.65830182    -0.72900
O308        O  0.51724605  0.01644632  0.65615923    -0.72900
O309        O  0.51552532  0.02013965  0.68997583    -0.72900
O310        O  0.47435611  0.97804304  0.69218343    -0.72800
O311        O  0.51592322  0.97900059  0.69440154    -0.72800
O312        O  0.47382155  0.01913756  0.68772437    -0.72900
Ni313      Ni  0.49695048  0.99527866  0.65603449     1.25400
Ni314      Ni  0.49482228  0.99924569  0.69230126     1.25400
C315        C  0.46787346  0.02384463  0.66965451     0.89400
C316        C  0.52372642  0.97051712  0.67850793     0.89300
C317        C  0.46922330  0.96889207  0.67558535     0.89300
C318        C  0.52330860  0.02518151  0.67266745     0.89500
O319        O  0.33787803  0.96856711  0.51040054    -0.72800
O320        O  0.33778248  0.00544268  0.46557148    -0.72800
O321        O  0.33681930  0.00946141  0.50665627    -0.72900
O322        O  0.33871829  0.96466416  0.46940041    -0.72900
O323        O  0.30457260  0.96340941  0.46846095    -0.72900
O324        O  0.30264682  0.00843775  0.50619054    -0.72800
O325        O  0.30358984  0.00463278  0.46471358    -0.72800
O326        O  0.30373457  0.96715770  0.50984434    -0.72900
Ni327      Ni  0.33896078  0.98708589  0.48804018     1.25400
Ni328      Ni  0.30237005  0.98588231  0.48729106     1.25400
C329        C  0.32094214  0.96152574  0.51747737     0.89400
C330        C  0.32080460  0.01113106  0.45762687     0.89300
C331        C  0.31948935  0.01644747  0.51262551     0.89300
C332        C  0.32206775  0.95654957  0.46273033     0.89500
O333        O  0.52518091  0.96703226  0.32873110    -0.72800
O334        O  0.48444946  0.00852766  0.32502479    -0.72800
O335        O  0.48364991  0.96743469  0.32831684    -0.72900
O336        O  0.52577348  0.00786863  0.32559170    -0.72900
O337        O  0.52620028  0.00555442  0.29159475    -0.72900
O338        O  0.48399691  0.96410385  0.29440096    -0.72800
O339        O  0.48431593  0.00546299  0.29102085    -0.72800
O340        O  0.52579806  0.96421127  0.29474145    -0.72900
Ni341      Ni  0.50470986  0.98778850  0.32806892     1.25400
Ni342      Ni  0.50506954  0.98473295  0.29167728     1.25400
C343        C  0.53246603  0.95896759  0.31240765     0.89400
C344        C  0.47775418  0.01395493  0.30745517     0.89300
C345        C  0.47688644  0.95892209  0.31197477     0.89300
C346        C  0.53307458  0.01341842  0.30829666     0.89500
O347        O  0.49778929  0.79880155  0.48230718    -0.72800
O348        O  0.53771401  0.80911741  0.52422998    -0.72800
O349        O  0.49641295  0.80279321  0.52352190    -0.72900
O350        O  0.53900767  0.80532997  0.48290492    -0.72900
O351        O  0.53442212  0.83875622  0.48007818    -0.72900
O352        O  0.49129470  0.83610176  0.51982409    -0.72800
O353        O  0.53254478  0.84248017  0.52137215    -0.72800
O354        O  0.49341401  0.83225896  0.47866072    -0.72900
Ni355      Ni  0.51793107  0.80282666  0.50337215     1.25400
Ni356      Ni  0.51275089  0.83858330  0.49990060     1.25400
C357        C  0.48908386  0.81385712  0.47350088     0.89400
C358        C  0.54176373  0.82746169  0.52977137     0.89300
C359        C  0.48653768  0.81903278  0.52809436     0.89300
C360        C  0.54377887  0.82246963  0.47473184     0.89500
C361        C  0.83644428  0.33326860  0.65788169     0.88100
C362        C  0.84948082  0.32051749  0.64273379    -0.52100
C363        C  0.86090885  0.33207507  0.62960029     0.11000
C364        C  0.85900027  0.35504154  0.63315758     0.22000
C365        C  0.85281283  0.34657588  0.66873482    -0.52800
C366        C  0.86440910  0.35803656  0.65576295     0.11200
C367        C  0.82408853  0.34801380  0.64443700    -0.52400
C368        C  0.83600244  0.35944920  0.63165738     0.11700
H369        H  0.85027929  0.30405045  0.64271606     0.16200
H370        H  0.86855541  0.36438544  0.62260021     0.02000
H371        H  0.85598481  0.34620034  0.68501429     0.16500
H372        H  0.80747023  0.34943546  0.64515763     0.16300
C373        C  0.85337708  0.31518042  0.33890998     0.88100
C374        C  0.86724749  0.32930785  0.32596220    -0.52100
C375        C  0.87961658  0.34186723  0.33718238     0.11000
C376        C  0.87752317  0.33900244  0.36030370     0.22000
C377        C  0.86867591  0.30366116  0.35294021    -0.52800
C378        C  0.88129339  0.31635115  0.36387970     0.11200
C379        C  0.84202921  0.32949602  0.35386984    -0.52400
C380        C  0.85467221  0.34191882  0.36504633     0.11700
H381        H  0.86693006  0.32964711  0.30933381     0.16200
H382        H  0.88791986  0.34912271  0.36928729     0.02000
H383        H  0.86986473  0.28738559  0.35481492     0.16500
H384        H  0.82542612  0.32948264  0.35567473     0.16300
C385        C  0.83966288  0.63284490  0.31860914     0.88100
C386        C  0.85173697  0.64388920  0.33580950    -0.52100
C387        C  0.86245448  0.63119058  0.34833074     0.11000
C388        C  0.86055209  0.60870005  0.34228537     0.22000
C389        C  0.85658110  0.62046564  0.30739878    -0.52800
C390        C  0.86733876  0.60780088  0.31991973     0.11200
C391        C  0.82644976  0.61671581  0.32974776    -0.52400
C392        C  0.83751656  0.60406697  0.34197255     0.11700
H393        H  0.85170509  0.66032685  0.33790637     0.16200
H394        H  0.86931952  0.59831479  0.35235789     0.02000
H395        H  0.86108073  0.62211904  0.29158544     0.16500
H396        H  0.80987186  0.61548724  0.32812638     0.16300
C397        C  0.82941102  0.64449504  0.65085649     0.88100
C398        C  0.84335229  0.63174352  0.66493400    -0.52100
C399        C  0.85632034  0.61915908  0.65467432     0.11000
C400        C  0.85410112  0.61990617  0.63135131     0.22000
C401        C  0.84413342  0.65519964  0.63582805    -0.52800
C402        C  0.85698872  0.64234027  0.62568042     0.11200
C403        C  0.81825764  0.62815019  0.63758640    -0.52400
C404        C  0.83129925  0.61553574  0.62712450     0.11700
H405        H  0.84311890  0.63268997  0.68153033     0.16200
H406        H  0.86476898  0.60966807  0.62301938     0.02000
H407        H  0.84425176  0.67155419  0.63335753     0.16500
H408        H  0.80187481  0.62598591  0.63649712     0.16300
O409        O  0.96590149  0.68347764  0.50711897    -0.72800
O410        O  0.01112281  0.68293206  0.46909320    -0.72800
O411        O  0.96943598  0.67983527  0.46588710    -0.72900
O412        O  0.00757174  0.68680074  0.51031645    -0.72900
O413        O  0.00881498  0.65303051  0.51385682    -0.72900
O414        O  0.97230208  0.64612201  0.46857156    -0.72800
O415        O  0.01334105  0.64933170  0.47302018    -0.72800
O416        O  0.96788079  0.64968180  0.50933182    -0.72900
Ni417      Ni  0.98843332  0.68452932  0.48797939     1.25400
Ni418      Ni  0.99067653  0.64840353  0.49129811     1.25400
C419        C  0.95931824  0.66646019  0.51429607     0.89400
C420        C  0.01973496  0.66587929  0.46487433     0.89300
C421        C  0.96459413  0.66178895  0.45991751     0.89300
C422        C  0.01430531  0.67096374  0.51950317     0.89500
O423        O  0.97354251  0.51392629  0.69997316    -0.72800
O424        O  0.01591269  0.47386289  0.70447695    -0.72800
O425        O  0.01479052  0.51524648  0.70453588    -0.72900
O426        O  0.97465205  0.47256604  0.69996267    -0.72900
O427        O  0.97796916  0.47304559  0.66599733    -0.72900
O428        O  0.01874855  0.51472991  0.67061596    -0.72800
O429        O  0.01905460  0.47367129  0.67053400    -0.72800
O430        O  0.97749053  0.51414010  0.66609269    -0.72900
Ni431      Ni  0.99458094  0.49390199  0.70347194     1.25400
Ni432      Ni  0.99845157  0.49391105  0.66712213     1.25400
C433        C  0.96857008  0.52068835  0.68228149     0.89400
C434        C  0.02437489  0.46702265  0.68814306     0.89300
C435        C  0.02340007  0.52196357  0.68825192     0.89300
C436        C  0.96975631  0.46574820  0.68220992     0.89500
O437        O  0.03180853  0.46090748  0.29363853    -0.72800
O438        O  0.98687154  0.49800986  0.28722182    -0.72800
O439        O  0.02835054  0.50205553  0.29118549    -0.72900
O440        O  0.99044684  0.45663358  0.28993694    -0.72900
O441        O  0.98781017  0.45858227  0.32389065    -0.72900
O442        O  0.02442327  0.50386393  0.32499801    -0.72800
O443        O  0.98333380  0.49926320  0.32115528    -0.72800
O444        O  0.02860984  0.46322244  0.32748834    -0.72900
Ni445      Ni  0.00945611  0.47935857  0.28921983     1.25400
Ni446      Ni  0.00590240  0.48134560  0.32552051     1.25400
C447        C  0.03760103  0.45590599  0.31168043     0.89400
C448        C  0.97762131  0.50462388  0.30322244     0.89300
C449        C  0.03284523  0.51023070  0.30851153     0.89300
C450        C  0.98329455  0.44985388  0.30694099     0.89500
O451        O  0.02584919  0.33217712  0.52883305    -0.72800
O452        O  0.98819634  0.32728290  0.48425949    -0.72800
O453        O  0.98453005  0.32947907  0.52528954    -0.72900
O454        O  0.02959680  0.33007172  0.48793555    -0.72900
O455        O  0.03144586  0.29620179  0.48951713    -0.72900
O456        O  0.98613705  0.29570693  0.52735230    -0.72800
O457        O  0.98990813  0.29345462  0.48606057    -0.72800
O458        O  0.02772005  0.29834646  0.53083648    -0.72900
Ni459      Ni  0.00696464  0.33091909  0.50651416     1.25400
Ni460      Ni  0.00887233  0.29469110  0.50851791     1.25400
C461        C  0.03320919  0.31611669  0.53704261     0.89400
C462        C  0.98268036  0.30960237  0.47784986     0.89300
C463        C  0.97772979  0.31260804  0.53247585     0.89300
C464        C  0.03807966  0.31331420  0.48264365     0.89500
O465        O  0.83394622  0.50819676  0.50879919    -0.72800
O466        O  0.83997221  0.46354926  0.47188839    -0.72800
O467        O  0.83722792  0.50427637  0.46775946    -0.72900
O468        O  0.83642325  0.46715812  0.51286326    -0.72900
O469        O  0.80233084  0.46476622  0.51049539    -0.72900
O470        O  0.80323060  0.50156713  0.46529155    -0.72800
O471        O  0.80594823  0.46065618  0.46938014    -0.72800
O472        O  0.79986509  0.50584023  0.50648543    -0.72900
Ni473      Ni  0.83808346  0.48590852  0.49046375     1.25400
Ni474      Ni  0.80161546  0.48313238  0.48784061     1.25400
C475        C  0.81603673  0.51453825  0.51369002     0.89400
C476        C  0.82404288  0.45475466  0.46441756     0.89300
C477        C  0.82033878  0.50886640  0.45885835     0.89300
C478        C  0.81925217  0.45964535  0.51896711     0.89500
C479        C  0.16625008  0.34462080  0.66978078     0.88100
C480        C  0.17726736  0.35848337  0.65416132    -0.52100
C481        C  0.16427730  0.37001323  0.64277830     0.11000
C482        C  0.14162257  0.36724530  0.64822877     0.22000
C483        C  0.15300237  0.35946209  0.68271678    -0.52800
C484        C  0.14038300  0.37134763  0.67123780     0.11200
C485        C  0.15018528  0.33251819  0.65717109    -0.52400
C486        C  0.13739730  0.34441679  0.64593326     0.11700
H487        H  0.19381225  0.35869727  0.65191249     0.16200
H488        H  0.13122478  0.37689314  0.63894315     0.02000
H489        H  0.15273314  0.36082607  0.69921249     0.16500
H490        H  0.14905413  0.31599808  0.65716341     0.16300
C491        C  0.15988828  0.64918241  0.33731777     0.88100
C492        C  0.17305772  0.63410396  0.34952943    -0.52100
C493        C  0.16194689  0.62052659  0.36081653     0.11000
C494        C  0.13863977  0.62340108  0.35921275     0.22000
C495        C  0.14492463  0.63568572  0.32473115    -0.52800
C496        C  0.13394309  0.62220781  0.33629120     0.11200
C497        C  0.14561450  0.65929195  0.35331739    -0.52400
C498        C  0.13483746  0.64570148  0.36492056     0.11700
H499        H  0.18973155  0.63395432  0.34890676     0.16200
H500        H  0.12949286  0.61246471  0.36850210     0.02000
H501        H  0.14287877  0.63691183  0.30829304     0.16500
H502        H  0.14296314  0.67544483  0.35487867     0.16300
C503        C  0.14499349  0.66212973  0.65704463     0.88100
C504        C  0.15705040  0.64622783  0.64448041    -0.52100
C505        C  0.14500841  0.63233886  0.63445484     0.11000
C506        C  0.12191775  0.63568369  0.63755629     0.22000
C507        C  0.13035096  0.67163441  0.64098122    -0.52800
C508        C  0.11835042  0.65773070  0.63087689     0.11200
C509        C  0.13070937  0.64952202  0.67099936    -0.52400
C510        C  0.11866571  0.63580435  0.66078779     0.11700
H511        H  0.17372858  0.64603582  0.64356699     0.16200
H512        H  0.11210300  0.62439098  0.62937178     0.02000
H513        H  0.12980405  0.68750508  0.63656756     0.16500
H514        H  0.13015662  0.65135006  0.68753155     0.16300
C515        C  0.17384694  0.33091631  0.34979704     0.88100
C516        C  0.15754706  0.32062256  0.36383892    -0.52100
C517        C  0.14583967  0.33412023  0.37468440     0.11000
C518        C  0.15134749  0.35644874  0.37062513     0.22000
C519        C  0.16110819  0.34551714  0.33651561    -0.52800
C520        C  0.14954433  0.35892883  0.34740461     0.11200
C521        C  0.18614100  0.34479476  0.36450789    -0.52400
C522        C  0.17430422  0.35801511  0.37534357     0.11700
H523        H  0.15487999  0.30436897  0.36556383     0.16200
H524        H  0.14199391  0.36746826  0.37952122     0.02000
H525        H  0.16133106  0.34530551  0.31987790     0.16500
H526        H  0.20269967  0.34395310  0.36644507     0.16300
O527        O  0.20638825  0.47729981  0.48492986    -0.72800
O528        O  0.19954973  0.52139646  0.52338162    -0.72800
O529        O  0.20229020  0.48022225  0.52621633    -0.72900
O530        O  0.20389187  0.51829994  0.48178551    -0.72900
O531        O  0.16979073  0.51598917  0.47908556    -0.72900
O532        O  0.16830625  0.47766881  0.52277855    -0.72800
O533        O  0.16564840  0.51839104  0.52010756    -0.72800
O534        O  0.17233346  0.47527934  0.48173869    -0.72900
Ni535      Ni  0.20429606  0.49943471  0.50421559     1.25400
Ni536      Ni  0.16786634  0.49674812  0.50082098     1.25400
C537        C  0.19032349  0.46927295  0.47677708     0.89400
C538        C  0.18131348  0.52696336  0.52832834     0.89300
C539        C  0.18497252  0.47267282  0.53181169     0.89300
C540        C  0.18704240  0.52322886  0.47299965     0.89500
C541        C  0.25550235  0.24681833  0.24710031    -0.00900
C542        C  0.75550171  0.24708430  0.23594756    -0.00900
C543        C  0.25122395  0.74095036  0.24904201    -0.00900
C544        C  0.26190832  0.24626654  0.74234982    -0.00900
C545        C  0.75206716  0.23872998  0.74793569    -0.00900
C546        C  0.75711691  0.74096883  0.24169867    -0.00900
C547        C  0.24872881  0.74326763  0.74354310    -0.00900
C548        C  0.15936017  0.16647640  0.15293002     0.88100
C549        C  0.14686714  0.17653602  0.13546678    -0.52100
C550        C  0.13663723  0.16282590  0.12330072     0.11000
C551        C  0.13961813  0.14058691  0.12962055     0.22000
C552        C  0.14329145  0.15341790  0.16423068    -0.52800
C553        C  0.13316602  0.13977389  0.15212438     0.11200
C554        C  0.17330855  0.15113715  0.14162496    -0.52400
C555        C  0.16286650  0.13756914  0.12964931     0.11700
H556        H  0.14588373  0.19272453  0.13227925     0.16200
H557        H  0.13137751  0.12938960  0.11977660     0.02000
H558        H  0.14021627  0.15491670  0.18051105     0.16500
H559        H  0.18992314  0.15090239  0.14317585     0.16300
C560        C  0.18333386  0.15021676  0.83820509     0.88100
C561        C  0.16835040  0.13657417  0.82570617    -0.52100
C562        C  0.15508037  0.12543613  0.83747809     0.11000
C563        C  0.15848552  0.12815149  0.86054646     0.22000
C564        C  0.16946184  0.16263052  0.85262436    -0.52800
C565        C  0.15664242  0.15108464  0.86431648     0.11200
C566        C  0.19434360  0.13470851  0.85228306    -0.52400
C567        C  0.18119300  0.12330527  0.86391539     0.11700
H568        H  0.16790139  0.13614576  0.80909285     0.16200
H569        H  0.14791755  0.11880946  0.87010917     0.02000
H570        H  0.16966971  0.17919601  0.85338959     0.16500
H571        H  0.21066171  0.13163924  0.85235154     0.16300
C572        C  0.84071573  0.16043963  0.13854553     0.88100
C573        C  0.83123430  0.14224719  0.12647223    -0.52100
C574        C  0.84549810  0.13032844  0.11684608     0.11000
C575        C  0.86769272  0.13752698  0.12015619     0.22000
C576        C  0.85597869  0.14986203  0.15316088    -0.52800
C577        C  0.87026762  0.13819305  0.14345700     0.11200
C578        C  0.85421154  0.17181422  0.12286441    -0.52400
C579        C  0.86809650  0.15973860  0.11312721     0.11700
H580        H  0.81516240  0.13799757  0.12645217     0.16200
H581        H  0.87930392  0.12799311  0.11223436     0.02000
H582        H  0.85547447  0.15137721  0.16971109     0.16500
H583        H  0.85246412  0.18786935  0.11935518     0.16300
C584        C  0.16428434  0.85008580  0.17825351     0.88100
C585        C  0.14986079  0.86430601  0.19069424    -0.52100
C586        C  0.13825476  0.87683593  0.17875934     0.11000
C587        C  0.14156609  0.87385486  0.15578066     0.22000
C588        C  0.14919310  0.83865847  0.16385593    -0.52800
C589        C  0.13739716  0.85113894  0.15207819     0.11200
C590        C  0.17656858  0.86446459  0.16408432    -0.52400
C591        C  0.16466082  0.87669240  0.15218603     0.11700
H592        H  0.14769543  0.86409763  0.20706027     0.16200
H593        H  0.13198516  0.88405804  0.14624326     0.02000
H594        H  0.14782036  0.82215355  0.16321789     0.16500
H595        H  0.19321648  0.86425913  0.16292088     0.16300
C596        C  0.84757289  0.84306459  0.16602063     0.88100
C597        C  0.83705549  0.85686710  0.15000819    -0.52100
C598        C  0.85024064  0.86999973  0.14033776     0.11000
C599        C  0.87260066  0.86802848  0.14746317     0.22000
C600        C  0.86435605  0.83240836  0.15328823    -0.52800
C601        C  0.87751852  0.84549778  0.14374143     0.11200
C602        C  0.85897488  0.85763463  0.18050497    -0.52400
C603        C  0.87187236  0.87068849  0.17077244     0.11700
H604        H  0.82104292  0.85565821  0.14564665     0.16200
H605        H  0.88346019  0.87853465  0.13963897     0.02000
H606        H  0.86521886  0.81601851  0.15118217     0.16500
H607        H  0.85678642  0.85782768  0.19698765     0.16300
O608        O  0.02420115  0.02321884  0.17242409    -0.72800
O609        O  0.97956851  0.98588847  0.17514670    -0.72800
O610        O  0.98297643  0.02636118  0.16998017    -0.72900
O611        O  0.02051998  0.98257378  0.17767666    -0.72900
O612        O  0.01964291  0.98763940  0.21144206    -0.72900
O613        O  0.98055451  0.03078654  0.20367165    -0.72800
O614        O  0.97799191  0.98980610  0.20899514    -0.72800
O615        O  0.02221131  0.02870421  0.20606163    -0.72900
Ni616      Ni  0.00189819  0.00439461  0.17265922     1.25400
Ni617      Ni  0.00005196  0.00941873  0.20880792     1.25400
C618        C  0.03052546  0.03225349  0.18863321     0.89400
C619        C  0.97160208  0.98135319  0.19243003     0.89300
C620        C  0.97518915  0.03558914  0.18542548     0.89300
C621        C  0.02623410  0.97779622  0.19577174     0.89500
C622        C  0.17600039  0.83178028  0.84999293     0.88100
C623        C  0.18882528  0.84674004  0.86330420    -0.52100
C624        C  0.17720225  0.85884038  0.87563022     0.11000
C625        C  0.15406163  0.85531164  0.87359503     0.22000
C626        C  0.16218798  0.82014723  0.86517440    -0.52800
C627        C  0.15092807  0.83253849  0.87759323     0.11200
C628        C  0.16127991  0.84607956  0.83837169    -0.52400
C629        C  0.14955153  0.85815584  0.85073006     0.11700
H630        H  0.20529101  0.84895724  0.86236079     0.16200
H631        H  0.14493647  0.86530705  0.88386464     0.02000
H632        H  0.16155887  0.80364796  0.86614881     0.16500
H633        H  0.16015710  0.84651139  0.82182981     0.16300
O634        O  0.17925408  0.01323066  0.98266048    -0.72800
O635        O  0.17819652  0.97809667  0.02916979    -0.72800
O636        O  0.17759839  0.01875507  0.02357403    -0.72900
O637        O  0.17992053  0.97256833  0.98802687    -0.72900
O638        O  0.21410215  0.97374649  0.98846527    -0.72900
O639        O  0.21179957  0.01911979  0.02562002    -0.72800
O640        O  0.21247574  0.97796532  0.02984313    -0.72800
O641        O  0.21336632  0.01479125  0.98413341    -0.72900
Ni642      Ni  0.17755988  0.99559631  0.00581813     1.25400
Ni643      Ni  0.21418891  0.99644010  0.00707514     1.25400
C644        C  0.19638632  0.01992674  0.97566043     0.89400
C645        C  0.19510408  0.97228485  0.03721198     0.89300
C646        C  0.19428199  0.02648224  0.03059933     0.89300
C647        C  0.19730087  0.96571998  0.98200735     0.89500
C648        C  0.84651193  0.14192943  0.82413489     0.88100
C649        C  0.83644689  0.12635204  0.83877720    -0.52100
C650        C  0.85014608  0.11611327  0.85055116     0.11000
C651        C  0.87252697  0.12261252  0.84729678     0.22000
C652        C  0.85888567  0.15585481  0.83890076    -0.52800
C653        C  0.87256261  0.14570137  0.85085392     0.11200
C654        C  0.86285097  0.12983861  0.81213213    -0.52400
C655        C  0.87652598  0.11990371  0.82434721     0.11700
H656        H  0.82008314  0.12418319  0.84089547     0.16200
H657        H  0.88358739  0.11429826  0.85711866     0.02000
H658        H  0.85672427  0.17219691  0.84018018     0.16500
H659        H  0.86375523  0.12954686  0.79553355     0.16300
O660        O  0.02687549  0.19507360  0.00359130    -0.72800
O661        O  0.98817960  0.19593326  0.95924022    -0.72800
O662        O  0.98521921  0.19600928  0.00077926    -0.72900
O663        O  0.03001308  0.19480602  0.96221200    -0.72900
O664        O  0.02891728  0.16090640  0.96260126    -0.72900
O665        O  0.98438096  0.16208197  0.00041188    -0.72800
O666        O  0.98764118  0.16196821  0.95916590    -0.72800
O667        O  0.02563786  0.16115759  0.00368445    -0.72900
Ni668      Ni  0.00758984  0.19670827  0.98142996     1.25400
Ni669      Ni  0.00657373  0.16037224  0.98144135     1.25400
C670        C  0.03268655  0.17795926  0.01093602     0.89400
C671        C  0.98157069  0.17899000  0.95186587     0.89300
C672        C  0.97759526  0.17909606  0.00715358     0.89300
C673        C  0.03702678  0.17753001  0.95624271     0.89500
C674        C  0.86343756  0.82422380  0.83339485     0.88100
C675        C  0.85012117  0.83762968  0.84753676    -0.52100
C676        C  0.86107013  0.85053353  0.85978734     0.11000
C677        C  0.88432292  0.84914822  0.85684412     0.22000
C678        C  0.87732951  0.83938895  0.82162410    -0.52800
C679        C  0.88792349  0.85257166  0.83395916     0.11200
C680        C  0.87878800  0.81353543  0.84803122    -0.52400
C681        C  0.88967529  0.82669302  0.86029131     0.11700
H682        H  0.83343501  0.83691347  0.84782041     0.16200
H683        H  0.89297244  0.85996974  0.86677552     0.02000
H684        H  0.87850384  0.83981606  0.80504952     0.16500
H685        H  0.88221925  0.79743175  0.84807980     0.16300
O686        O  0.99266022  0.79884354  0.98792157    -0.72800
O687        O  0.03160083  0.80493276  0.03187944    -0.72800
O688        O  0.98990666  0.80349257  0.02932546    -0.72900
O689        O  0.03426483  0.80044364  0.99060874    -0.72900
O690        O  0.03302913  0.83414200  0.98697645    -0.72900
O691        O  0.98955409  0.83718176  0.02574109    -0.72800
O692        O  0.03091581  0.83857407  0.02797013    -0.72800
O693        O  0.99168272  0.83262278  0.98477827    -0.72900
Ni694      Ni  0.01212077  0.80068381  0.01008420     1.25400
Ni695      Ni  0.01126539  0.83677806  0.00624431     1.25400
C696        C  0.98577121  0.81482424  0.97907693     0.89400
C697        C  0.03780860  0.82280112  0.03712629     0.89300
C698        C  0.98246253  0.82096281  0.03400551     0.89300
C699        C  0.04084124  0.81690896  0.98228003     0.89500
O700        O  0.81413400  0.96598744  0.96890058    -0.72800
O701        O  0.81463354  0.00703702  0.01105327    -0.72800
O702        O  0.81411904  0.00744456  0.96957474    -0.72900
O703        O  0.81466643  0.96570221  0.01059761    -0.72900
O704        O  0.84884957  0.96614912  0.01004528    -0.72900
O705        O  0.84831390  0.00751220  0.96936793    -0.72800
O706        O  0.84887691  0.00726214  0.01042861    -0.72800
O707        O  0.84837080  0.96653205  0.96864230    -0.72900
Ni708      Ni  0.81312348  0.98648849  0.99004323     1.25400
Ni709      Ni  0.84977305  0.98681311  0.98961436     1.25400
C710        C  0.83128480  0.95972371  0.96161579     0.89400
C711        C  0.83190104  0.01410842  0.01745503     0.89300
C712        C  0.83123913  0.01453335  0.96285365     0.89300
C713        C  0.83193460  0.95922245  0.01731406     0.89500
O714        O  0.03922862  0.97388014  0.83145073    -0.72800
O715        O  0.99649045  0.01303797  0.82768836    -0.72800
O716        O  0.99800082  0.97197046  0.82964574    -0.72900
O717        O  0.03780363  0.01472737  0.82946103    -0.72900
O718        O  0.03964230  0.01324462  0.79545317    -0.72900
O719        O  0.99925677  0.97003767  0.79568012    -0.72800
O720        O  0.99781677  0.01164918  0.79369891    -0.72800
O721        O  0.04092703  0.97174981  0.79745002    -0.72900
Ni722      Ni  0.01779286  0.99347524  0.83069018     1.25400
Ni723      Ni  0.01943719  0.99163082  0.79428766     1.25400
C724        C  0.04720032  0.96633008  0.81523005     0.89400
C725        C  0.99007003  0.01900033  0.81021189     0.89300
C726        C  0.99222649  0.96361670  0.81286075     0.89300
C727        C  0.04553638  0.02094374  0.81257814     0.89500
C728        C  0.75840854  0.75025789  0.74167225    -0.00900
C729        C  0.85245687  0.88078378  0.90819775     0.14300
C730        C  0.83894978  0.89593063  0.90149084     0.01300
C731        C  0.83121628  0.89513516  0.88143672     0.16200
C732        C  0.83752865  0.87965621  0.86800551     0.25700
C733        C  0.85178806  0.86499543  0.87450645    -0.40700
C734        C  0.85887915  0.86547315  0.89480875     0.32700
C735        C  0.83509807  0.91363575  0.91489246     0.01300
F736        F  0.81841029  0.90988509  0.87462150    -0.13000
F737        F  0.87239557  0.85132322  0.90156025    -0.13500
C738        C  0.85012642  0.92896230  0.91636337     0.16200
C739        C  0.84849237  0.94425597  0.93115363     0.25700
C740        C  0.83172140  0.94451705  0.94480514    -0.40600
C741        C  0.81609658  0.92968048  0.94262178     0.32600
C742        C  0.81785445  0.91426287  0.92778795     0.14300
F743        F  0.86679279  0.92868617  0.90384300    -0.13000
F744        F  0.79971849  0.92943795  0.95550173    -0.13500
F745        F  0.86348343  0.95872418  0.93221747    -0.15800
F746        F  0.80321436  0.89947325  0.92657000    -0.14300
F747        F  0.86005807  0.88135267  0.92755167    -0.14300
F748        F  0.83080919  0.87977514  0.84833240    -0.15800
C749        C  0.91588653  0.80043095  0.90498811     0.14300
C750        C  0.93311365  0.81312921  0.90787336     0.01300
C751        C  0.93730572  0.82850652  0.89356512     0.16200
C752        C  0.92382508  0.83202168  0.87734567     0.25700
C753        C  0.90565682  0.82040286  0.87527799    -0.40700
C754        C  0.90218445  0.80407177  0.88883407     0.32700
C755        C  0.94541524  0.81217564  0.92691294     0.01300
F756        F  0.95418402  0.84060859  0.89575274    -0.13000
F757        F  0.88486417  0.79252244  0.88733587    -0.13500
C758        C  0.95874627  0.79589634  0.93085871     0.16200
C759        C  0.97144717  0.79627723  0.94824978     0.25700
C760        C  0.97100023  0.81302108  0.96185555    -0.40600
C761        C  0.95698119  0.82884636  0.95818852     0.32600
C762        C  0.94435938  0.82840421  0.94092016     0.14300
F763        F  0.96004915  0.78008384  0.91746699    -0.13000
F764        F  0.95546450  0.84484014  0.97134791    -0.13500
F765        F  0.98484482  0.78078762  0.95121268    -0.15800
F766        F  0.93115708  0.84401664  0.93770050    -0.14300
F767        F  0.91166013  0.78534914  0.91855030    -0.14300
F768        F  0.92845402  0.84705111  0.86384350    -0.15800
C769        C  0.91386584  0.90372635  0.82889846     0.14300
C770        C  0.93174028  0.89872925  0.81795847     0.01300
C771        C  0.93416842  0.87877855  0.81044207     0.16200
C772        C  0.91926631  0.86382667  0.81462545     0.25700
C773        C  0.90192494  0.86869072  0.82647590    -0.40700
C774        C  0.89914616  0.88881444  0.83321552     0.32700
C775        C  0.94836844  0.91408316  0.81609189     0.01300
F776        F  0.95147739  0.87352827  0.80013640    -0.13000
F777        F  0.88232767  0.89394394  0.84436653    -0.13500
C778        C  0.95740957  0.92203747  0.83390695     0.16200
C779        C  0.97169187  0.93791138  0.83278824     0.25700
C780        C  0.97741231  0.94624115  0.81368884    -0.40600
C781        C  0.96885460  0.93765564  0.79572111     0.32600
C782        C  0.95446564  0.92167989  0.79695572     0.14300
F783        F  0.95225349  0.91444141  0.85254805    -0.13000
F784        F  0.97401790  0.94492110  0.77696970    -0.13500
F785        F  0.97979990  0.94508635  0.85058274    -0.15800
F786        F  0.94598065  0.91408009  0.77952118    -0.14300
F787        F  0.91099109  0.92300947  0.83592173    -0.14300
F788        F  0.92242181  0.84435761  0.80831039    -0.15800
C789        C  0.83306488  0.77937581  0.80828920     0.14300
C790        C  0.82163355  0.78971291  0.79342043     0.01300
C791        C  0.82431618  0.81083931  0.79140109     0.16200
C792        C  0.83780959  0.82149494  0.80424223     0.25700
C793        C  0.84970882  0.81128647  0.81913653    -0.40700
C794        C  0.84682758  0.78992272  0.82107102     0.32700
C795        C  0.80587810  0.77882014  0.78095253     0.01300
F796        F  0.81360674  0.82129945  0.77706383    -0.13000
F797        F  0.85587761  0.77905779  0.83609157    -0.13500
C798        C  0.78544399  0.78538410  0.78125155     0.16200
C799        C  0.77058730  0.77580827  0.76912793     0.25700
C800        C  0.77568513  0.75956910  0.75561937    -0.40600
C801        C  0.79606910  0.75187707  0.75698321     0.32600
C802        C  0.81094417  0.76170852  0.76908535     0.14300
F803        F  0.77973806  0.80116251  0.79346635    -0.13000
F804        F  0.80176194  0.73427737  0.74771061    -0.13500
F805        F  0.75119957  0.78321735  0.76996917    -0.15800
F806        F  0.83044474  0.75446142  0.76911417    -0.14300
F807        F  0.83009216  0.75909151  0.81124037    -0.14300
F808        F  0.83875212  0.84210230  0.80244445    -0.15800
C809        C  0.90267330  0.15484676  0.89933661     0.14300
C810        C  0.91639929  0.17025359  0.89324728     0.01300
C811        C  0.91422099  0.17920862  0.87389774     0.16200
C812        C  0.89912650  0.17199549  0.86033431     0.25700
C813        C  0.88619232  0.15568993  0.86602427    -0.40700
C814        C  0.88770347  0.14759372  0.88583394     0.32700
C815        C  0.93451951  0.17462643  0.90610688     0.01300
F816        F  0.92747955  0.19402125  0.86773161    -0.13000
F817        F  0.87498828  0.13230116  0.89196576    -0.13500
C818        C  0.95028211  0.16019411  0.90689314     0.16200
C819        C  0.96610408  0.16219453  0.92115319     0.25700
C820        C  0.96645737  0.17872467  0.93494520    -0.40600
C821        C  0.95132567  0.19392211  0.93326430     0.32600
C822        C  0.93536400  0.19180529  0.91895268     0.14300
F823        F  0.94989131  0.14370801  0.89425523    -0.13000
F824        F  0.95124766  0.21012129  0.94625855    -0.13500
F825        F  0.98091436  0.14771797  0.92169641    -0.15800
F826        F  0.92021918  0.20592437  0.91832844    -0.14300
F827        F  0.90443500  0.14619527  0.91810318    -0.14300
F828        F  0.89814097  0.17990402  0.84118560    -0.15800
C829        C  0.85127570  0.05520456  0.92694676     0.14300
C830        C  0.83366034  0.05999938  0.91568136     0.01300
C831        C  0.81474527  0.05103875  0.92090229     0.16200
C832        C  0.81369355  0.03657740  0.93660223     0.25700
C833        C  0.83162212  0.03093819  0.94729326    -0.40700
C834        C  0.85032531  0.04088185  0.94258107     0.32700
C835        C  0.83563423  0.07362143  0.89790123     0.01300
F836        F  0.79747912  0.05573034  0.91029915    -0.13000
F837        F  0.86787751  0.03673613  0.95296324    -0.13500
C838        C  0.84836623  0.06790209  0.88150794     0.16200
C839        C  0.85265007  0.08163063  0.86581790     0.25700
C840        C  0.84401899  0.10114310  0.86616095    -0.40600
C841        C  0.83057605  0.10662243  0.88208601     0.32600
C842        C  0.82644659  0.09292204  0.89794198     0.14300
F843        F  0.85700462  0.04911834  0.88099473    -0.13000
F844        F  0.82242737  0.12560982  0.88287757    -0.13500
F845        F  0.86534503  0.07594051  0.85034182    -0.15800
F846        F  0.81439234  0.09884126  0.91382905    -0.14300
F847        F  0.86956117  0.06432268  0.92260458    -0.14300
F848        F  0.79527241  0.02771910  0.94084339    -0.15800
C849        C  0.95298146  0.05951407  0.79081100     0.14300
C850        C  0.94288427  0.06503591  0.80897810     0.01300
C851        C  0.94805960  0.05526024  0.82728752     0.16200
C852        C  0.96314136  0.04025639  0.82757979     0.25700
C853        C  0.97358129  0.03465497  0.80946262    -0.40700
C854        C  0.96826357  0.04449251  0.79102072     0.32700
C855        C  0.92687092  0.08095109  0.80931203     0.01300
F856        F  0.93826001  0.06014382  0.84498845    -0.13000
F857        F  0.97804412  0.03990458  0.77324984    -0.13500
C858        C  0.90744068  0.07722266  0.80060761     0.16200
C859        C  0.89116410  0.09066806  0.80430836     0.25700
C860        C  0.89418298  0.10791447  0.81680631    -0.40600
C861        C  0.91393393  0.11222698  0.82443634     0.32600
C862        C  0.93014304  0.09887181  0.82070417     0.14300
F863        F  0.90388960  0.05984512  0.78979292    -0.13000
F864        F  0.91736439  0.12906468  0.83612757    -0.13500
F865        F  0.87215284  0.08602228  0.79704372    -0.15800
F866        F  0.94887036  0.10293515  0.82899501    -0.14300
F867        F  0.94833353  0.06897933  0.77297520    -0.14300
F868        F  0.96733185  0.03117250  0.84573721    -0.15800
C869        C  0.18440465  0.90966304  0.90135613     0.14300
C870        C  0.19575756  0.90425347  0.91874478     0.01300
C871        C  0.20308382  0.88427681  0.92072064     0.16200
C872        C  0.19812007  0.86956249  0.90591625     0.25700
C873        C  0.18570057  0.87476284  0.88916611    -0.40700
C874        C  0.17931361  0.89498157  0.88670851     0.32700
C875        C  0.19711938  0.91869584  0.93598504     0.01300
F876        F  0.21378520  0.87875554  0.93763028    -0.13000
F877        F  0.16751405  0.90032684  0.87047508    -0.13500
C878        C  0.17935037  0.92280129  0.94733478     0.16200
C879        C  0.17961399  0.93756484  0.96270933     0.25700
C880        C  0.19774107  0.94868876  0.96699401    -0.40600
C881        C  0.21580191  0.94401447  0.95594818     0.32600
C882        C  0.21545133  0.92907177  0.94055937     0.14300
F883        F  0.16155750  0.91263526  0.94324314    -0.13000
F884        F  0.23360099  0.95436901  0.95943132    -0.13500
F885        F  0.16195574  0.94105486  0.97319789    -0.15800
F886        F  0.23276687  0.92524604  0.92963442    -0.14300
F887        F  0.17737326  0.92897399  0.89915378    -0.14300
F888        F  0.20405555  0.84996895  0.90872335    -0.15800
C889        C  0.10152701  0.89028933  0.84682198     0.14300
C890        C  0.10621690  0.90292842  0.83014798     0.01300
C891        C  0.12472845  0.90017320  0.81951996     0.16200
C892        C  0.13873614  0.88540047  0.82593222     0.25700
C893        C  0.13426759  0.87296685  0.84294667    -0.40700
C894        C  0.11532462  0.87532768  0.85307095     0.32700
C895        C  0.09241276  0.91994134  0.82501134     0.01300
F896        F  0.12963461  0.91242625  0.80352268    -0.13000
F897        F  0.11001274  0.86305018  0.86892740    -0.13500
C898        C  0.09024624  0.93609385  0.83892313     0.16200
C899        C  0.07611487  0.95153012  0.83524081     0.25700
C900        C  0.06372939  0.95109168  0.81755172    -0.40600
C901        C  0.06654762  0.93532343  0.80312356     0.32600
C902        C  0.08082724  0.91983038  0.80686394     0.14300
F903        F  0.10174281  0.93677554  0.85626468    -0.13000
F904        F  0.05483023  0.93433011  0.78595222    -0.13500
F905        F  0.07451140  0.96691517  0.84910742    -0.15800
F906        F  0.08276028  0.90429723  0.79322120    -0.14300
F907        F  0.08359093  0.89261700  0.85718517    -0.14300
F908        F  0.15707827  0.88402361  0.81613716    -0.15800
C909        C  0.08731732  0.79980454  0.95155852     0.14300
C910        C  0.08979951  0.81627859  0.93816003     0.01300
C911        C  0.07615436  0.83265955  0.93905299     0.16200
C912        C  0.06017498  0.83271839  0.95324575     0.25700
C913        C  0.05756321  0.81631560  0.96692224    -0.40700
C914        C  0.07125865  0.79976352  0.96585618     0.32700
C915        C  0.10691217  0.81705152  0.92348311     0.01300
F916        F  0.07845383  0.84873835  0.92619659    -0.13000
F917        F  0.06948850  0.78383232  0.97895752    -0.13500
C918        C  0.10403190  0.81025069  0.90328259     0.16200
C919        C  0.11903748  0.81416317  0.88843190     0.25700
C920        C  0.13688146  0.82514974  0.89365943    -0.40600
C921        C  0.14003363  0.83130147  0.91403800     0.32600
C922        C  0.12516130  0.82719047  0.92889387     0.14300
F923        F  0.08619723  0.80088386  0.89776677    -0.13000
F924        F  0.15722286  0.84188117  0.91938443    -0.13500
F925        F  0.11550517  0.80855679  0.86871184    -0.15800
F926        F  0.12802880  0.83404201  0.94833341    -0.14300
F927        F  0.10059697  0.78394283  0.95094093    -0.14300
F928        F  0.04716372  0.84882201  0.95340123    -0.15800
C929        C  0.92591807  0.94938806  0.20953707     0.14300
C930        C  0.92483609  0.93511246  0.19354450     0.01300
C931        C  0.93861310  0.93640290  0.17712825     0.16200
C932        C  0.95365523  0.95150811  0.17679082     0.25700
C933        C  0.95520451  0.96573109  0.19294844    -0.40700
C934        C  0.94112423  0.96460199  0.20932386     0.32700
C935        C  0.90949674  0.91862548  0.19336900     0.01300
F936        F  0.93743507  0.92292622  0.16131856    -0.13000
F937        F  0.94188631  0.97831284  0.22492726    -0.13500
C938        C  0.88921452  0.92270224  0.18747048     0.16200
C939        C  0.87618854  0.90667201  0.18175275     0.25700
C940        C  0.88356711  0.88663619  0.18144395    -0.40600
C941        C  0.90318745  0.88240139  0.18904641     0.32600
C942        C  0.91611043  0.89836832  0.19507935     0.14300
F943        F  0.88264909  0.94221192  0.18562040    -0.13000
F944        F  0.91022983  0.86297335  0.18939553    -0.13500
F945        F  0.85675901  0.91074721  0.17548916    -0.15800
F946        F  0.93561575  0.89425072  0.20109776    -0.14300
F947        F  0.91243489  0.94842829  0.22536914    -0.14300
F948        F  0.96699699  0.95182198  0.16079236    -0.15800
C949        C  0.82788848  0.88728700  0.08961621     0.14300
C950        C  0.83688210  0.90667556  0.08770078     0.01300
C951        C  0.84904280  0.91447241  0.10365937     0.16200
C952        C  0.85282725  0.90279611  0.12100380     0.25700
C953        C  0.84434508  0.88310433  0.12284857    -0.40700
C954        C  0.83163553  0.87552048  0.10703261     0.32700
C955        C  0.83494825  0.91838173  0.06858126     0.01300
F956        F  0.85758820  0.93336027  0.10224196    -0.13000
F957        F  0.82393307  0.85625712  0.10773807    -0.13500
C958        C  0.81590793  0.92604784  0.06230154     0.16200
C959        C  0.81468925  0.93879297  0.04520360     0.25700
C960        C  0.83258647  0.94404369  0.03411290    -0.40600
C961        C  0.85150461  0.93548794  0.04007603     0.32600
C962        C  0.85261570  0.92283315  0.05711912     0.14300
F963        F  0.79865211  0.92190490  0.07325751    -0.13000
F964        F  0.86913135  0.93957723  0.02969584    -0.13500
F965        F  0.79610652  0.94653797  0.04005628    -0.15800
F966        F  0.87110564  0.91511532  0.06268242    -0.14300
F967        F  0.81636733  0.87935343  0.07416415    -0.14300
F968        F  0.86505805  0.91078079  0.13582255    -0.15800
C969        C  0.90188072  0.82107722  0.09721409     0.14300
C970        C  0.92146576  0.83015176  0.09751477     0.01300
C971        C  0.92700789  0.84306582  0.11382572     0.16200
C972        C  0.91291972  0.84742178  0.12930796     0.25700
C973        C  0.89310049  0.83888262  0.12873311    -0.40700
C974        C  0.88775198  0.82541630  0.11272966     0.32700
C975        C  0.93583400  0.82721360  0.08032448     0.01300
F976        F  0.94602922  0.85167928  0.11455907    -0.13000
F977        F  0.86849203  0.81741820  0.11144301    -0.13500
C978        C  0.94190498  0.84403451  0.06858970     0.16200
C979        C  0.95665252  0.84189583  0.05327649     0.25700
C980        C  0.96570663  0.82275628  0.04934636    -0.40600
C981        C  0.95897215  0.80572513  0.06073200     0.32600
C982        C  0.94411412  0.80797566  0.07606611     0.14300
F983        F  0.93357937  0.86266248  0.07208936    -0.13000
F984        F  0.96709030  0.78698178  0.05748950    -0.13500
F985        F  0.96214804  0.85874731  0.04252125    -0.15800
F986        F  0.93832663  0.79151265  0.08725863    -0.14300
F987        F  0.89612231  0.80884817  0.08138059    -0.14300
F988        F  0.91860317  0.86009310  0.14480538    -0.15800
C989        C  0.17906378  0.95078702  0.08838856     0.14300
C990        C  0.19028987  0.93262250  0.08907309     0.01300
C991        C  0.20394694  0.92795542  0.07309779     0.16200
C992        C  0.20612262  0.94121537  0.05643954     0.25700
C993        C  0.19432016  0.95906299  0.05541316    -0.40700
C994        C  0.18092931  0.96383330  0.07161264     0.32700
C995        C  0.18542134  0.91737947  0.10493440     0.01300
F996        F  0.21449962  0.91017451  0.07327505    -0.13000
F997        F  0.16951958  0.98108280  0.07109144    -0.13500
C998        C  0.16993299  0.90296423  0.10102545     0.16200
C999        C  0.16368749  0.88944455  0.11625692     0.25700
C1000       C  0.17278134  0.89012422  0.13579232    -0.40600
C1001       C  0.18877377  0.90421280  0.13956666     0.32600
C1002       C  0.19499801  0.91784903  0.12420685     0.14300
F1003       F  0.16049877  0.90233314  0.08249128    -0.13000
F1004       F  0.19771021  0.90536536  0.15831572    -0.13500
F1005       F  0.14874738  0.87559742  0.11179928    -0.15800
F1006       F  0.20997921  0.93178844  0.12824343    -0.14300
F1007       F  0.16565783  0.95543666  0.10361638    -0.14300
F1008       F  0.21878736  0.93603555  0.04076558    -0.15800
C1009       C  0.08898143  0.89675885  0.20224732     0.14300
C1010       C  0.08946830  0.91715279  0.19573391     0.01300
C1011       C  0.10672216  0.92446468  0.18506791     0.16200
C1012       C  0.12301215  0.91147976  0.18043087     0.25700
C1013       C  0.12246498  0.89101238  0.18660365    -0.40700
C1014       C  0.10549335  0.88378415  0.19786359     0.32700
C1015       C  0.07159312  0.93070114  0.19856598     0.01300
F1016       F  0.10732510  0.94400560  0.17830585    -0.13000
F1017       F  0.10435814  0.86391035  0.20349864    -0.13500
C1018       C  0.07289788  0.94757011  0.21182807     0.16200
C1019       C  0.05750178  0.96241565  0.21184042     0.25700
C1020       C  0.04081189  0.96077808  0.19824580    -0.40600
C1021       C  0.03904173  0.94334121  0.18571529     0.32600
C1022       C  0.05424869  0.92835886  0.18598155     0.14300
F1023       F  0.08954327  0.95005274  0.22413087    -0.13000
F1024       F  0.02276360  0.94102747  0.17288423    -0.13500
F1025       F  0.05963589  0.97904368  0.22410548    -0.15800
F1026       F  0.05263924  0.91213639  0.17309403    -0.14300
F1027       F  0.07231860  0.88933252  0.21234538    -0.14300
F1028       F  0.13917020  0.91877053  0.16945045    -0.15800
C1029       C  0.07282920  0.81159280  0.08251129     0.14300
C1030       C  0.08085863  0.83103179  0.08693314     0.01300
C1031       C  0.07533443  0.84752581  0.07450904     0.16200
C1032       C  0.06158775  0.84481734  0.05828997     0.25700
C1033       C  0.05303835  0.82542377  0.05400231    -0.40700
C1034       C  0.05908547  0.80877189  0.06620562     0.32700
C1035       C  0.09461132  0.83443302  0.10473907     0.01300
F1036       F  0.08340480  0.86636230  0.07803121    -0.13000
F1037       F  0.05146496  0.78977037  0.06268877    -0.13500
C1038       C  0.11354643  0.82432369  0.10624249     0.16200
C1039       C  0.12717688  0.82900826  0.12221762     0.25700
C1040       C  0.12205742  0.84390331  0.13687889    -0.40600
C1041       C  0.10274989  0.85334038  0.13581068     0.32600
C1042       C  0.08917351  0.84864540  0.11991433     0.14300
F1043       F  0.11927418  0.81068346  0.09167479    -0.13000
F1044       F  0.09700207  0.86722164  0.15014147    -0.13500
F1045       F  0.14584283  0.81989181  0.12262716    -0.15800
F1046       F  0.07071948  0.85816785  0.11920160    -0.14300
F1047       F  0.07784092  0.79541710  0.09436861    -0.14300
F1048       F  0.05675790  0.86131499  0.04680712    -0.15800
C1049       C  0.91029584  0.18718969  0.08394935     0.14300
C1050       C  0.91122867  0.17524383  0.06605067     0.01300
C1051       C  0.89646539  0.15985032  0.06286303     0.16200
C1052       C  0.88182801  0.15556010  0.07785196     0.25700
C1053       C  0.88160280  0.16664791  0.09628216    -0.40700
C1054       C  0.89549828  0.18293635  0.09899742     0.32700
C1055       C  0.92869969  0.17711115  0.05165366     0.01300
F1056       F  0.89669612  0.14849091  0.04544046    -0.13000
F1057       F  0.89560670  0.19380978  0.11672069    -0.13500
C1058       C  0.94178721  0.16041785  0.04888601     0.16200
C1059       C  0.95768017  0.16121851  0.03460069     0.25700
C1060       C  0.96095424  0.17884313  0.02271489    -0.40600
C1061       C  0.94812502  0.19582274  0.02588120     0.32600
C1062       C  0.93209977  0.19493145  0.04025626     0.14300
F1063       F  0.93918102  0.14323659  0.06016272    -0.13000
F1064       F  0.95064982  0.21303871  0.01467131    -0.13500
F1065       F  0.97001556  0.14470431  0.03264488    -0.15800
F1066       F  0.91952487  0.21120341  0.04260411    -0.14300
F1067       F  0.92446622  0.20208886  0.08738991    -0.14300
F1068       F  0.86807226  0.14025859  0.07450151    -0.15800
C1069       C  0.93629254  0.06907769  0.15856726     0.14300
C1070       C  0.93030564  0.08246985  0.17420324     0.01300
C1071       C  0.93866480  0.08022189  0.19387135     0.16200
C1072       C  0.95325224  0.06501234  0.19769597     0.25700
C1073       C  0.95961615  0.05174216  0.18185549    -0.40700
C1074       C  0.95073464  0.05393065  0.16227657     0.32700
C1075       C  0.91571057  0.09896748  0.16935506     0.01300
F1076       F  0.93306255  0.09304976  0.20921503    -0.13000
F1077       F  0.95579355  0.04129502  0.14658121    -0.13500
C1078       C  0.89554897  0.09861727  0.17708328     0.16200
C1079       C  0.88084622  0.11218446  0.16950298     0.25700
C1080       C  0.88618959  0.12619636  0.15409196    -0.40600
C1081       C  0.90661978  0.12722256  0.14724654     0.32600
C1082       C  0.92125959  0.11376816  0.15485306     0.14300
F1083       F  0.88979121  0.08428471  0.19092225    -0.13000
F1084       F  0.91229204  0.14096505  0.13277962    -0.13500
F1085       F  0.86111152  0.11061773  0.17610453    -0.15800
F1086       F  0.94075446  0.11461758  0.14746655    -0.14300
F1087       F  0.92796392  0.07061957  0.13957390    -0.14300
F1088       F  0.96136638  0.06358126  0.21677517    -0.15800
C1089       C  0.81745945  0.04834264  0.06209516     0.14300
C1090       C  0.83395823  0.06221665  0.06220942     0.01300
C1091       C  0.84962844  0.06033101  0.04759368     0.16200
C1092       C  0.84889816  0.04471301  0.03304338     0.25700
C1093       C  0.83244203  0.03064358  0.03288741    -0.40700
C1094       C  0.81667486  0.03264606  0.04752288     0.32700
C1095       C  0.83515254  0.07862837  0.07764994     0.01300
F1096       F  0.86553886  0.07383373  0.04728627    -0.13000
F1097       F  0.80081759  0.01910808  0.04809096    -0.13500
C1098       C  0.85034618  0.07803445  0.09283317     0.16200
C1099       C  0.85289056  0.09439282  0.10632996     0.25700
C1100       C  0.84054046  0.11185496  0.10457749    -0.40600
C1101       C  0.82480458  0.11209994  0.08979039     0.32600
C1102       C  0.82208302  0.09551910  0.07647668     0.14300
F1103       F  0.86296016  0.06169678  0.09433248    -0.13000
F1104       F  0.81288961  0.12882821  0.08739242    -0.13500
F1105       F  0.86754379  0.09314593  0.12105496    -0.15800
F1106       F  0.80738993  0.09635797  0.06175725    -0.14300
F1107       F  0.80236265  0.04978054  0.07636603    -0.14300
F1108       F  0.86407014  0.04368391  0.01879600    -0.15800
C1109       C  0.18478124  0.07170739  0.88894672     0.14300
C1110       C  0.19464097  0.07656788  0.90751886     0.01300
C1111       C  0.20192826  0.09658966  0.91069122     0.16200
C1112       C  0.19861387  0.11164905  0.89591241     0.25700
C1113       C  0.18775503  0.10694987  0.87791995    -0.40700
C1114       C  0.18117698  0.08682870  0.87438058     0.32700
C1115       C  0.19553039  0.06132286  0.92425167     0.01300
F1116       F  0.21110358  0.10185248  0.92862880    -0.13000
F1117       F  0.17088153  0.08192214  0.85695175    -0.13500
C1118       C  0.21427600  0.05604072  0.93343366     0.16200
C1119       C  0.21470351  0.04244610  0.94995393     0.25700
C1120       C  0.19631769  0.03382226  0.95763185    -0.40600
C1121       C  0.17761968  0.03885267  0.94796094     0.32600
C1122       C  0.17726624  0.05248482  0.93160322     0.14300
F1123       F  0.23221657  0.06397194  0.92631212    -0.13000
F1124       F  0.15946288  0.03078376  0.95436092    -0.13500
F1125       F  0.23314417  0.03790575  0.95844899    -0.15800
F1126       F  0.15886279  0.05753754  0.92330077    -0.14300
F1127       F  0.17816510  0.05238465  0.88516183    -0.14300
F1128       F  0.20480982  0.13109049  0.89974911    -0.15800
C1129       C  0.10914524  0.17732961  0.88417729     0.14300
C1130       C  0.10879077  0.17054314  0.90453223     0.01300
C1131       C  0.12526849  0.15908909  0.91208623     0.16200
C1132       C  0.14142328  0.15358727  0.89915699     0.25700
C1133       C  0.14137955  0.15963586  0.87858354    -0.40700
C1134       C  0.12543315  0.17198195  0.87126742     0.32700
C1135       C  0.09014113  0.17299983  0.91710314     0.01300
F1136       F  0.12524218  0.15256567  0.93178673    -0.13000
F1137       F  0.12486218  0.17752257  0.85126826    -0.13500
C1138       C  0.07715203  0.15616522  0.92004455     0.16200
C1139       C  0.05971033  0.15780454  0.93233226     0.25700
C1140       C  0.05491473  0.17640977  0.94211617    -0.40600
C1141       C  0.06791489  0.19341460  0.93886140     0.32600
C1142       C  0.08536892  0.19169421  0.92637415     0.14300
F1143       F  0.08143563  0.13802600  0.91095365    -0.13000
F1144       F  0.06415601  0.21152405  0.94821089    -0.13500
F1145       F  0.04756218  0.14105280  0.93458692    -0.15800
F1146       F  0.09789889  0.20810137  0.92373435    -0.14300
F1147       F  0.09310467  0.18800226  0.87650861    -0.14300
F1148       F  0.15686770  0.14190963  0.90655584    -0.15800
C1149       C  0.12638906  0.08315622  0.80955765     0.14300
C1150       C  0.10673965  0.08495234  0.81827378     0.01300
C1151       C  0.10263331  0.10121585  0.83162167     0.16200
C1152       C  0.11821808  0.11489506  0.83706479     0.25700
C1153       C  0.13820055  0.11256199  0.82923986    -0.40700
C1154       C  0.14206544  0.09692654  0.81498230     0.32700
C1155       C  0.09144458  0.06837996  0.81603240     0.01300
F1156       F  0.08367866  0.10331049  0.84005385    -0.13000
F1157       F  0.16128858  0.09413157  0.80744276    -0.13500
C1158       C  0.08775464  0.05551154  0.83271705     0.16200
C1159       C  0.07309234  0.03999586  0.83138919     0.25700
C1160       C  0.06161630  0.03706250  0.81329492    -0.40600
C1161       C  0.06551931  0.04987007  0.79641419     0.32600
C1162       C  0.08035836  0.06545118  0.79780998     0.14300
F1163       F  0.09850340  0.05797363  0.85038703    -0.13000
F1164       F  0.05460801  0.04773063  0.77881816    -0.13500
F1165       F  0.07037951  0.02766313  0.84783655    -0.15800
F1166       F  0.08355388  0.07798103  0.78161319    -0.14300
F1167       F  0.13068797  0.06732397  0.79685369    -0.14300
F1168       F  0.11385139  0.13019804  0.85036866    -0.15800
C1169       C  0.19234627  0.11126002  0.08744610     0.14300
C1170       C  0.18490177  0.09122630  0.08939822     0.01300
C1171       C  0.17198215  0.08617326  0.10581792     0.16200
C1172       C  0.16579450  0.10117024  0.11965853     0.25700
C1173       C  0.17255234  0.12139229  0.11732495    -0.40700
C1174       C  0.18628721  0.12629594  0.10144744     0.32700
C1175       C  0.18878495  0.07592145  0.07335141     0.01300
F1176       F  0.16460514  0.06687714  0.10784043    -0.13000
F1177       F  0.19264575  0.14584418  0.09868094    -0.13500
C1178       C  0.20489113  0.06197258  0.07532567     0.16200
C1179       C  0.20713307  0.04616907  0.06104630     0.25700
C1180       C  0.19307983  0.04401799  0.04477654    -0.40600
C1181       C  0.17716204  0.05829854  0.04270872     0.32600
C1182       C  0.17510634  0.07416283  0.05685303     0.14300
F1183       F  0.21801719  0.06332291  0.09142862    -0.13000
F1184       F  0.16353405  0.05687390  0.02701600    -0.13500
F1185       F  0.22236742  0.03239349  0.06373222    -0.15800
F1186       F  0.15938419  0.08751844  0.05481752    -0.14300
F1187       F  0.20467649  0.11638542  0.07147931    -0.14300
F1188       F  0.15266384  0.09609749  0.13500653    -0.15800
C1189       C  0.06248628  0.08014475  0.19546296     0.14300
C1190       C  0.07594761  0.07844308  0.17877941     0.01300
C1191       C  0.07577955  0.06076280  0.16671257     0.16200
C1192       C  0.06165147  0.04525101  0.17065994     0.25700
C1193       C  0.04733218  0.04727205  0.18669542    -0.40700
C1194       C  0.04823213  0.06460139  0.19945941     0.32700
C1195       C  0.08965104  0.09536816  0.17316616     0.01300
F1196       F  0.08909019  0.05874517  0.15082099    -0.13000
F1197       F  0.03460445  0.06705187  0.21500496    -0.13500
C1198       C  0.10734744  0.09947710  0.18469745     0.16200
C1199       C  0.12141287  0.11420512  0.17808246     0.25700
C1200       C  0.11772517  0.12517723  0.15996941    -0.40600
C1201       C  0.09960155  0.12142798  0.14882790     0.32600
C1202       C  0.08573989  0.10650957  0.15532174     0.14300
F1203       F  0.11139907  0.08859049  0.20184700    -0.13000
F1204       F  0.09521244  0.13226518  0.13172554    -0.13500
F1205       F  0.13909057  0.11696322  0.18880525    -0.15800
F1206       F  0.06856782  0.10272464  0.14408346    -0.14300
F1207       F  0.06254422  0.09724370  0.20723729    -0.14300
F1208       F  0.06180482  0.02835069  0.15858769    -0.15800
C1209       C  0.07587690  0.19345488  0.04706182     0.14300
C1210       C  0.07822297  0.17568469  0.05866539     0.01300
C1211       C  0.06516974  0.15894735  0.05506191     0.16200
C1212       C  0.05014376  0.15980384  0.03983197     0.25700
C1213       C  0.04793522  0.17746799  0.02780864    -0.40700
C1214       C  0.06088581  0.19436885  0.03173676     0.32700
C1215       C  0.09451500  0.17426641  0.07431326     0.01300
F1216       F  0.06694059  0.14175519  0.06642972    -0.13000
F1217       F  0.05954130  0.21157487  0.02034901    -0.13500
C1218       C  0.09365264  0.18612807  0.09223503     0.16200
C1219       C  0.10797584  0.18317029  0.10792449     0.25700
C1220       C  0.12339453  0.16837339  0.10577828    -0.40600
C1221       C  0.12482669  0.15730800  0.08735593     0.32600
C1222       C  0.11043832  0.16015649  0.07180957     0.14300
F1223       F  0.07830806  0.19980008  0.09494871    -0.13000
F1224       F  0.14007379  0.14355988  0.08445893    -0.13500
F1225       F  0.10598654  0.19384888  0.12564766    -0.15800
F1226       F  0.11182780  0.14889860  0.05438154    -0.14300
F1227       F  0.08853539  0.20970296  0.05017889    -0.14300
F1228       F  0.03767690  0.14334833  0.03702175    -0.15800
C1229       C  0.21432020  0.75989362  0.78883569     0.14300
C1230       C  0.21985541  0.78028778  0.79188901     0.01300
C1231       C  0.23573623  0.78879070  0.78021312     0.16200
C1232       C  0.24536195  0.77738041  0.76490170     0.25700
C1233       C  0.23882230  0.75705637  0.76039204    -0.40700
C1234       C  0.22390825  0.74832207  0.77371306     0.32700
C1235       C  0.20888200  0.79269556  0.80720925     0.01300
F1236       F  0.24199364  0.80829874  0.78364902    -0.13000
F1237       F  0.21793376  0.72857646  0.77161580    -0.13500
C1238       C  0.21926205  0.80074685  0.82422160     0.16200
C1239       C  0.20880734  0.81260540  0.83863028     0.25700
C1240       C  0.18777396  0.81734006  0.83582199    -0.40600
C1241       C  0.17718418  0.80757149  0.81957658     0.32600
C1242       C  0.18772373  0.79587181  0.80518921     0.14300
F1243       F  0.23945817  0.79658828  0.82721077    -0.13000
F1244       F  0.15650019  0.80929858  0.81753445    -0.13500
F1245       F  0.21914191  0.81802702  0.85583353    -0.15800
F1246       F  0.17727381  0.78782462  0.78904621    -0.14300
F1247       F  0.19957665  0.75109415  0.80064750    -0.14300
F1248       F  0.26188763  0.78616340  0.75577806    -0.15800
C1249       C  0.80060887  0.81861749  0.19194796     0.14300
C1250       C  0.80913028  0.80070960  0.19970503     0.01300
C1251       C  0.83025396  0.79733211  0.19791079     0.16200
C1252       C  0.84262398  0.81132454  0.18761568     0.25700
C1253       C  0.83387389  0.82846544  0.17791547    -0.40700
C1254       C  0.81288249  0.83260614  0.18152010     0.32700
C1255       C  0.79595013  0.78577726  0.21007578     0.01300
F1256       F  0.83888128  0.78037835  0.20601177    -0.13000
F1257       F  0.80430695  0.85061657  0.17625097    -0.13500
C1258       C  0.77997935  0.77625714  0.19935424     0.16200
C1259       C  0.76721168  0.76218080  0.20904284     0.25700
C1260       C  0.77065847  0.75660578  0.22982538    -0.40600
C1261       C  0.78602221  0.76770228  0.24071578     0.32600
C1262       C  0.79879147  0.78162503  0.23081715     0.14300
F1263       F  0.77657809  0.78080067  0.17936865    -0.13000
F1264       F  0.78931480  0.76446458  0.26094287    -0.13500
F1265       F  0.75084443  0.75537668  0.19808596    -0.15800
F1266       F  0.81383183  0.79129566  0.24159523    -0.14300
F1267       F  0.78042188  0.82280693  0.19499867    -0.14300
F1268       F  0.86323966  0.80822302  0.18756623    -0.15800
C1269       C  0.77417284  0.20190778  0.78922533     0.14300
C1270       C  0.79020748  0.19281732  0.77831047     0.01300
C1271       C  0.79306211  0.19757334  0.75770617     0.16200
C1272       C  0.78066527  0.21195908  0.74825752     0.25700
C1273       C  0.76541783  0.22277426  0.75940008    -0.40700
C1274       C  0.76173625  0.21652082  0.77995052     0.32700
C1275       C  0.80459042  0.17897854  0.78857484     0.01300
F1276       F  0.80804923  0.18828006  0.74668833    -0.13000
F1277       F  0.74569314  0.22359613  0.79110198    -0.13500
C1278       C  0.79806970  0.15980542  0.79539501     0.16200
C1279       C  0.81173117  0.14702553  0.80562333     0.25700
C1280       C  0.83198974  0.15373706  0.81016562    -0.40600
C1281       C  0.83886569  0.17214208  0.80122724     0.32600
C1282       C  0.82519753  0.18478544  0.79095540     0.14300
F1283       F  0.77855918  0.15327891  0.79172658    -0.13000
F1284       F  0.85883854  0.17811298  0.80263087    -0.13500
F1285       F  0.80528330  0.12778743  0.80975635    -0.15800
F1286       F  0.83198275  0.20298976  0.78368068    -0.14300
F1287       F  0.77066177  0.19675183  0.80904466    -0.14300
F1288       F  0.78429872  0.21590182  0.72822546    -0.15800
C1289       C  0.22846378  0.18271149  0.81688975     0.14300
C1290       C  0.21878414  0.19307369  0.80089895     0.01300
C1291       C  0.19778471  0.18987049  0.79744605     0.16200
C1292       C  0.18669190  0.17606478  0.80945982     0.25700
C1293       C  0.19644799  0.16461915  0.82499910    -0.40700
C1294       C  0.21745472  0.16891521  0.82905080     0.32700
C1295       C  0.23073455  0.20673330  0.78735856     0.01300
F1296       F  0.18802782  0.19997940  0.78221016    -0.13000
F1297       F  0.22732533  0.16108925  0.84544847    -0.13500
C1298       C  0.24578253  0.19859430  0.77451584     0.16200
C1299       C  0.25635482  0.21097323  0.76067496     0.25700
C1300       C  0.25148865  0.23203423  0.75858174    -0.40600
C1301       C  0.23788017  0.24033835  0.77343017     0.32600
C1302       C  0.22721043  0.22775630  0.78713043     0.14300
F1303       F  0.25018876  0.17840297  0.77526041    -0.13000
F1304       F  0.23394067  0.26060341  0.77400021    -0.13500
F1305       F  0.27195893  0.20209880  0.75023832    -0.15800
F1306       F  0.21335702  0.23612355  0.80018936    -0.14300
F1307       F  0.24858797  0.18641045  0.82109344    -0.14300
F1308       F  0.16617542  0.17421764  0.80605625    -0.15800
C1309       C  0.20676712  0.77845035  0.23508050     0.14300
C1310       C  0.21614233  0.79055490  0.22009597     0.01300
C1311       C  0.23693524  0.78751373  0.21556989     0.16200
C1312       C  0.24792841  0.77198573  0.22518241     0.25700
C1313       C  0.23832081  0.75854129  0.23936027    -0.40700
C1314       C  0.21773588  0.76318080  0.24507817     0.32700
C1315       C  0.20416685  0.80655373  0.20952648     0.01300
F1316       F  0.24671094  0.79973566  0.20189543    -0.13000
F1317       F  0.20817206  0.75408417  0.26108696    -0.13500
C1318       C  0.19503860  0.82233817  0.22076188     0.16200
C1319       C  0.18264480  0.83678669  0.21110061     0.25700
C1320       C  0.17861458  0.83548673  0.18979960    -0.40600
C1321       C  0.18912778  0.82029914  0.17848763     0.32600
C1322       C  0.20147787  0.80591399  0.18825240     0.14300
F1323       F  0.19849686  0.82400736  0.24120538    -0.13000
F1324       F  0.18733170  0.81923027  0.15779521    -0.13500
F1325       F  0.17581124  0.85243921  0.22274038    -0.15800
F1326       F  0.21041483  0.79099621  0.17693204    -0.14300
F1327       F  0.18676089  0.78144407  0.24013597    -0.14300
F1328       F  0.26797609  0.76967273  0.22001225    -0.15800
C1329       C  0.79140077  0.23463365  0.19016964     0.14300
C1330       C  0.78754465  0.21387108  0.18659265     0.01300
C1331       C  0.77157962  0.20428162  0.19732760     0.16200
C1332       C  0.76054043  0.21478508  0.21230952     0.25700
C1333       C  0.76608171  0.23505944  0.21810436    -0.40700
C1334       C  0.78071295  0.24513940  0.20546429     0.32700
C1335       C  0.80088844  0.20182454  0.17270075     0.01300
F1336       F  0.76687638  0.18439712  0.19368142    -0.13000
F1337       F  0.78560421  0.26502936  0.20865815    -0.13500
C1338       C  0.82220313  0.20160892  0.17584122     0.16200
C1339       C  0.83473965  0.18891958  0.16414931     0.25700
C1340       C  0.82624806  0.17516679  0.14967553    -0.40600
C1341       C  0.80494140  0.17664442  0.14547194     0.32600
C1342       C  0.79247098  0.18973491  0.15697254     0.14300
F1343       F  0.83091687  0.21319778  0.19080468    -0.13000
F1344       F  0.79605325  0.16652339  0.12964696    -0.13500
F1345       F  0.85535739  0.18995243  0.16726157    -0.15800
F1346       F  0.77211628  0.19080543  0.15253090    -0.14300
F1347       F  0.80582518  0.24473096  0.17902893    -0.14300
F1348       F  0.74394632  0.20498376  0.22020265    -0.15800
C1349       C  0.22799455  0.22206908  0.20005496     0.14300
C1350       C  0.21184258  0.21157484  0.20953276     0.01300
C1351       C  0.21086182  0.21099880  0.23091399     0.16200
C1352       C  0.22530834  0.22167145  0.24265538     0.25700
C1353       C  0.24062141  0.23410588  0.23329911    -0.40700
C1354       C  0.24238593  0.23289294  0.21161475     0.32700
C1355       C  0.19661961  0.20069813  0.19675829     0.01300
F1356       F  0.19558054  0.20052452  0.24047098    -0.13000
F1357       F  0.25851256  0.24099267  0.20123569    -0.13500
C1358       C  0.19455207  0.17952128  0.19802183     0.16200
C1359       C  0.18232316  0.16900438  0.18395716     0.25700
C1360       C  0.17167906  0.17940608  0.16822818    -0.40600
C1361       C  0.17315427  0.20094077  0.16777602     0.32600
C1362       C  0.18547785  0.21134154  0.18192232     0.14300
F1363       F  0.20512176  0.16887325  0.21231779    -0.13000
F1364       F  0.16323600  0.21235780  0.15377991    -0.13500
F1365       F  0.18122877  0.14837306  0.18548783    -0.15800
F1366       F  0.18683192  0.23198541  0.18093375    -0.14300
F1367       F  0.23019926  0.22132863  0.17938347    -0.14300
F1368       F  0.22352316  0.22075183  0.26332117    -0.15800
C1369       C  0.20142643  0.40260406  0.40031448     0.14300
C1370       C  0.19202826  0.40257196  0.41965734     0.01300
C1371       C  0.17860081  0.38667724  0.42502767     0.16200
C1372       C  0.17373552  0.37150686  0.41084037     0.25700
C1373       C  0.18230224  0.37201857  0.39112094    -0.40700
C1374       C  0.19665756  0.38727959  0.38608920     0.32700
C1375       C  0.19326419  0.42059534  0.43299365     0.01300
F1376       F  0.16927804  0.38657352  0.44363347    -0.13000
F1377       F  0.20479613  0.38819736  0.36697172    -0.13500
C1378       C  0.17722065  0.43468681  0.43237863     0.16200
C1379       C  0.17663293  0.45075153  0.44632104     0.25700
C1380       C  0.19214898  0.45301560  0.46120811    -0.40600
C1381       C  0.20866999  0.43923022  0.46134416     0.32600
C1382       C  0.20915001  0.42301512  0.44731620     0.14300
F1383       F  0.16179108  0.43252599  0.41851668    -0.13000
F1384       F  0.22377720  0.44086420  0.47559443    -0.13500
F1385       F  0.16077318  0.46406566  0.44525812    -0.15800
F1386       F  0.22465606  0.40930079  0.44813868    -0.14300
F1387       F  0.21410333  0.41815920  0.39480941    -0.14300
F1388       F  0.16007954  0.35670047  0.41612247    -0.15800
C1389       C  0.21474521  0.31793356  0.30985349     0.14300
C1390       C  0.21304944  0.29677830  0.30807977     0.01300
C1391       C  0.19964712  0.28608622  0.32097364     0.16200
C1392       C  0.18739792  0.29642858  0.33510989     0.25700
C1393       C  0.18810628  0.31799689  0.33639139    -0.40700
C1394       C  0.20245693  0.32843742  0.32379504     0.32700
C1395       C  0.22401784  0.28584038  0.29176181     0.01300
F1396       F  0.19818429  0.26546092  0.31959849    -0.13000
F1397       F  0.20412173  0.34908393  0.32449065    -0.13500
C1398       C  0.24534223  0.28355843  0.29238368     0.16200
C1399       C  0.25527890  0.27186964  0.27749717     0.25700
C1400       C  0.24392474  0.26123659  0.26216957    -0.40600
C1401       C  0.22260699  0.26578178  0.26057891     0.32600
C1402       C  0.21287823  0.27756478  0.27542939     0.14300
F1403       F  0.25646136  0.29206197  0.30782888    -0.13000
F1404       F  0.21100213  0.25995326  0.24431603    -0.13500
F1405       F  0.27596771  0.26983999  0.27892150    -0.15800
F1406       F  0.19242069  0.28119552  0.27370795    -0.14300
F1407       F  0.22765945  0.32851891  0.29741957    -0.14300
F1408       F  0.17494193  0.28489601  0.34696383    -0.15800
C1409       C  0.15255553  0.58140460  0.60820917     0.14300
C1410       C  0.16586007  0.58669247  0.59207362     0.01300
C1411       C  0.17333922  0.60677507  0.59075171     0.16200
C1412       C  0.16710022  0.62150452  0.60496492     0.25700
C1413       C  0.15324315  0.61636673  0.62068878    -0.40700
C1414       C  0.14620526  0.59614937  0.62233440     0.32700
C1415       C  0.17028716  0.57177348  0.57560258     0.01300
F1416       F  0.18577357  0.61237657  0.57502579    -0.13000
F1417       F  0.13310629  0.59069127  0.63757841    -0.13500
C1418       C  0.15401822  0.56379483  0.56395562     0.16200
C1419       C  0.15769955  0.54970100  0.54837960     0.25700
C1420       C  0.17787760  0.54308880  0.54405609    -0.40600
C1421       C  0.19428079  0.55147059  0.55553660     0.32600
C1422       C  0.19048305  0.56571088  0.57115117     0.14300
F1423       F  0.13442392  0.56987877  0.56753342    -0.13000
F1424       F  0.21396068  0.54570436  0.55195976    -0.13500
F1425       F  0.14130433  0.54257263  0.53759972    -0.15800
F1426       F  0.20647770  0.57323918  0.58224369    -0.14300
F1427       F  0.14543964  0.56198996  0.61003999    -0.14300
F1428       F  0.17360068  0.64105991  0.60260281    -0.15800
C1429       C  0.17418720  0.70897367  0.67958374     0.14300
C1430       C  0.18841860  0.69941279  0.69241250     0.01300
C1431       C  0.18780114  0.67812995  0.69425358     0.16200
C1432       C  0.17358857  0.66658916  0.68302305     0.25700
C1433       C  0.15947358  0.67597701  0.66956406    -0.40700
C1434       C  0.15965279  0.69757182  0.66861545     0.32700
C1435       C  0.20361845  0.71167700  0.70418339     0.01300
F1436       F  0.20079964  0.66847586  0.70721395    -0.13000
F1437       F  0.14568624  0.70822578  0.65780937    -0.13500
C1438       C  0.19713547  0.72751870  0.71705925     0.16200
C1439       C  0.21133853  0.73883227  0.72850714     0.25700
C1440       C  0.23248672  0.73343743  0.72881056    -0.40600
C1441       C  0.23895305  0.71876481  0.71414105     0.32600
C1442       C  0.22470574  0.70788047  0.70229919     0.14300
F1443       F  0.17685047  0.73194973  0.71882952    -0.13000
F1444       F  0.25909108  0.71390656  0.71218014    -0.13500
F1445       F  0.20407226  0.75545055  0.73848414    -0.15800
F1446       F  0.23155538  0.69343415  0.68905657    -0.14300
F1447       F  0.17444763  0.72955801  0.67746215    -0.14300
F1448       F  0.17362955  0.64601697  0.68536062    -0.15800
C1449       C  0.19303661  0.59446845  0.40194211     0.14300
C1450       C  0.18338208  0.57529761  0.40244716     0.01300
C1451       C  0.16882178  0.57015279  0.38744476     0.16200
C1452       C  0.16281915  0.58455803  0.37300694     0.25700
C1453       C  0.17119122  0.60436663  0.37350876    -0.40700
C1454       C  0.18698622  0.60897321  0.38753122     0.32700
C1455       C  0.18533342  0.56236256  0.42068306     0.01300
F1456       F  0.15953910  0.55155557  0.38759253    -0.13000
F1457       F  0.19535900  0.62796361  0.38839474    -0.13500
C1458       C  0.17003206  0.56345575  0.43574870     0.16200
C1459       C  0.17091607  0.55102772  0.45295932     0.25700
C1460       C  0.18720964  0.53730180  0.45545547    -0.40600
C1461       C  0.20278691  0.53642548  0.44048235     0.32600
C1462       C  0.20181112  0.54890415  0.42312472     0.14300
F1463       F  0.15411153  0.57657395  0.43366277    -0.13000
F1464       F  0.21838761  0.52289449  0.44219988    -0.13500
F1465       F  0.15586959  0.55252042  0.46728981    -0.15800
F1466       F  0.21658065  0.54752039  0.40851000    -0.14300
F1467       F  0.20716976  0.59961972  0.41637715    -0.14300
F1468       F  0.14832634  0.57934097  0.35894875    -0.15800
C1469       C  0.19599809  0.66680425  0.29449304     0.14300
C1470       C  0.19964455  0.68725841  0.29952119     0.01300
C1471       C  0.19091954  0.69543859  0.31731850     0.16200
C1472       C  0.17830370  0.68349000  0.32978105     0.25700
C1473       C  0.17343935  0.66310762  0.32422047    -0.40700
C1474       C  0.18331028  0.65478683  0.30680840     0.32700
C1475       C  0.21325776  0.69991687  0.28669437     0.01300
F1476       F  0.19489251  0.71505859  0.32283666    -0.13000
F1477       F  0.18117589  0.63474178  0.30194753    -0.13500
C1478       C  0.20839955  0.70357177  0.26619222     0.16200
C1479       C  0.22095314  0.71614797  0.25429578     0.25700
C1480       C  0.23822620  0.72641282  0.26289725    -0.40600
C1481       C  0.24382600  0.72097045  0.28326373     0.32600
C1482       C  0.23129264  0.70820342  0.29493881     0.14300
F1483       F  0.19113424  0.69535180  0.25779586    -0.13000
F1484       F  0.26201760  0.72651416  0.29181499    -0.13500
F1485       F  0.21557141  0.71909136  0.23446435    -0.15800
F1486       F  0.23715312  0.70338004  0.31427685    -0.14300
F1487       F  0.20529530  0.65826861  0.27796996    -0.14300
F1488       F  0.17239438  0.69176337  0.34785137    -0.15800
C1489       C  0.16424987  0.44106985  0.57559202     0.14300
C1490       C  0.18104661  0.42858248  0.58004607     0.01300
C1491       C  0.19949678  0.43107363  0.56922742     0.16200
C1492       C  0.20100366  0.44566970  0.55372010     0.25700
C1493       C  0.18400042  0.45795424  0.54887304    -0.40700
C1494       C  0.16569366  0.45566894  0.56019211     0.32700
C1495       C  0.17882275  0.41246212  0.59549573     0.01300
F1496       F  0.21579319  0.41891258  0.57326146    -0.13000
F1497       F  0.14918717  0.46767269  0.55650116    -0.13500
C1498       C  0.16609883  0.39560182  0.59138655     0.16200
C1499       C  0.16215842  0.38126577  0.60660863     0.25700
C1500       C  0.17090563  0.38361251  0.62613080    -0.40600
C1501       C  0.18426266  0.40006744  0.63004526     0.32600
C1502       C  0.18818757  0.41447298  0.61476549     0.14300
F1503       F  0.15715048  0.39331327  0.57273186    -0.13000
F1504       F  0.19246787  0.40282326  0.64896703    -0.13500
F1505       F  0.14956369  0.36521331  0.60237863    -0.15800
F1506       F  0.20026556  0.43089329  0.61903889    -0.14300
F1507       F  0.14639105  0.43904547  0.58618700    -0.14300
F1508       F  0.21880887  0.44721901  0.54297990    -0.15800
C1509       C  0.21232992  0.27031825  0.71925609     0.14300
C1510       C  0.22093848  0.28557485  0.70700104     0.01300
C1511       C  0.24219159  0.28662549  0.70445570     0.16200
C1512       C  0.25489078  0.27359070  0.71537384     0.25700
C1513       C  0.24663608  0.25907615  0.72936632    -0.40700
C1514       C  0.22489668  0.25672751  0.72977259     0.32700
C1515       C  0.20773774  0.30102808  0.69766360     0.01300
F1516       F  0.25073915  0.30099881  0.69213156    -0.13000
F1517       F  0.21542866  0.24103282  0.73944323    -0.13500
C1518       C  0.19798682  0.31536692  0.71014975     0.16200
C1519       C  0.18511882  0.33001713  0.70168718     0.25700
C1520       C  0.18135138  0.33028663  0.68031935    -0.40600
C1521       C  0.19215121  0.31621969  0.66785488     0.32600
C1522       C  0.20516087  0.30178682  0.67645541     0.14300
F1523       F  0.20124796  0.31536611  0.73069030    -0.13000
F1524       F  0.18988312  0.31626527  0.64717655    -0.13500
F1525       F  0.17714868  0.34389663  0.71474145    -0.15800
F1526       F  0.21496828  0.28828860  0.66410162    -0.14300
F1527       F  0.19159069  0.26852034  0.72091618    -0.14300
F1528       F  0.27547369  0.27614619  0.71320550    -0.15800
C1529       C  0.07412458  0.30011327  0.43898432     0.14300
C1530       C  0.08680209  0.31749260  0.43848350     0.01300
C1531       C  0.08444022  0.33269360  0.45344110     0.16200
C1532       C  0.06900878  0.33097925  0.46822502     0.25700
C1533       C  0.05564281  0.31399510  0.46827053    -0.40700
C1534       C  0.05866076  0.29832801  0.45380996     0.32700
C1535       C  0.10146619  0.32059504  0.42151732     0.01300
F1536       F  0.09692034  0.34936869  0.45349146    -0.13000
F1537       F  0.04597043  0.28182676  0.45331750    -0.13500
C1538       C  0.09719966  0.33513323  0.40644006     0.16200
C1539       C  0.11123670  0.33883176  0.39068898     0.25700
C1540       C  0.12995286  0.32822314  0.38990508    -0.40600
C1541       C  0.13404840  0.31337953  0.40486301     0.32600
C1542       C  0.11982887  0.30953954  0.42051251     0.14300
F1543       F  0.07941148  0.34583183  0.40707903    -0.13000
F1544       F  0.15225528  0.30339714  0.40500232    -0.13500
F1545       F  0.10647395  0.35279065  0.37617413    -0.15800
F1546       F  0.12430559  0.29560899  0.43513480    -0.14300
F1547       F  0.07614568  0.28533127  0.42453978    -0.14300
F1548       F  0.06711269  0.34597644  0.48247990    -0.15800
C1549       C  0.08695562  0.34008193  0.61799536     0.14300
C1550       C  0.09183884  0.32620462  0.60239851     0.01300
C1551       C  0.11114599  0.31680359  0.60221912     0.16200
C1552       C  0.12578468  0.32189810  0.61709442     0.25700
C1553       C  0.12117738  0.33645812  0.63224469    -0.40700
C1554       C  0.10149613  0.34512635  0.63287563     0.32700
C1555       C  0.07736197  0.32301907  0.58540115     0.01300
F1556       F  0.11614719  0.30356582  0.58701635    -0.13000
F1557       F  0.09647194  0.35877402  0.64770490    -0.13500
C1558       C  0.07523734  0.33821418  0.57055312     0.16200
C1559       C  0.06094973  0.33589680  0.55479798     0.25700
C1560       C  0.04847726  0.31828657  0.55366849    -0.40600
C1561       C  0.05085717  0.30293005  0.56850042     0.32600
C1562       C  0.06523561  0.30531895  0.58427300     0.14300
F1563       F  0.08710492  0.35531009  0.57133100    -0.13000
F1564       F  0.03888638  0.28590689  0.56810849    -0.13500
F1565       F  0.05961277  0.35075890  0.54045181    -0.15800
F1566       F  0.06703177  0.29060677  0.59870952    -0.14300
F1567       F  0.06827796  0.34918892  0.61840192    -0.14300
F1568       F  0.14484896  0.31368840  0.61586721    -0.15800
C1569       C  0.07434947  0.41900993  0.33670028     0.14300
C1570       C  0.08800110  0.41475785  0.32068191     0.01300
C1571       C  0.08485641  0.42352711  0.30140754     0.16200
C1572       C  0.06841378  0.43684930  0.29831454     0.25700
C1573       C  0.05481197  0.44146327  0.31450827    -0.40700
C1574       C  0.05791073  0.43217154  0.33369632     0.32700
C1575       C  0.10563755  0.40136874  0.32459754     0.01300
F1576       F  0.09797967  0.41954110  0.28575581    -0.13000
F1577       F  0.04495389  0.43560266  0.34962487    -0.13500
C1578       C  0.10573650  0.38130909  0.31706270     0.16200
C1579       C  0.12072606  0.36763254  0.32367472     0.25700
C1580       C  0.13568930  0.37391843  0.33794448    -0.40600
C1581       C  0.13617928  0.39429022  0.34459095     0.32600
C1582       C  0.12125526  0.40792933  0.33793883     0.14300
F1583       F  0.09058583  0.37466333  0.30435180    -0.13000
F1584       F  0.15089541  0.40087363  0.35783309    -0.13500
F1585       F  0.11975839  0.34793895  0.31726372    -0.15800
F1586       F  0.12155730  0.42739704  0.34507164    -0.14300
F1587       F  0.07692819  0.41024822  0.35532441    -0.14300
F1588       F  0.06615276  0.44554776  0.27963304    -0.15800
C1589       C  0.06717191  0.55547410  0.29499537     0.14300
C1590       C  0.07612236  0.55981296  0.31408389     0.01300
C1591       C  0.07147008  0.54745398  0.33091699     0.16200
C1592       C  0.05770344  0.53123247  0.32892747     0.25700
C1593       C  0.04812618  0.52704591  0.30997876    -0.40700
C1594       C  0.05323538  0.53918729  0.29292100     0.32700
C1595       C  0.09006077  0.57740300  0.31698095     0.01300
F1596       F  0.08039974  0.55109743  0.34937924    -0.13000
F1597       F  0.04437121  0.53569668  0.27441846    -0.13500
C1598       C  0.08414813  0.59341054  0.32999253     0.16200
C1599       C  0.09827048  0.60854239  0.33550503     0.25700
C1600       C  0.11845285  0.60796202  0.32796489    -0.40600
C1601       C  0.12417713  0.59246136  0.31425264     0.32600
C1602       C  0.11003240  0.57719855  0.30881090     0.14300
F1603       F  0.06486981  0.59391877  0.33794521    -0.13000
F1604       F  0.14380825  0.59133529  0.30730832    -0.13500
F1605       F  0.09238935  0.62351644  0.34861618    -0.15800
F1606       F  0.11616823  0.56154893  0.29665552    -0.14300
F1607       F  0.07151587  0.56734239  0.27855486    -0.14300
F1608       F  0.05398974  0.51949098  0.34562230    -0.15800
C1609       C  0.09719739  0.59290872  0.69293654     0.14300
C1610       C  0.07730328  0.59113801  0.68483299     0.01300
C1611       C  0.07031546  0.60555086  0.67069652     0.16200
C1612       C  0.08354355  0.62082584  0.66368089     0.25700
C1613       C  0.10386304  0.62196133  0.67087138    -0.40700
C1614       C  0.11040982  0.60836641  0.68609429     0.32700
C1615       C  0.06512058  0.57249602  0.68810593     0.01300
F1616       F  0.05109621  0.60397453  0.66271581    -0.13000
F1617       F  0.13002571  0.60907542  0.69314451    -0.13500
C1618       C  0.04900179  0.57194895  0.70235925     0.16200
C1619       C  0.03591271  0.55494469  0.70321646     0.25700
C1620       C  0.03866002  0.53856050  0.68952511    -0.40600
C1621       C  0.05532092  0.53890915  0.67582893     0.32600
C1622       C  0.06848541  0.55572839  0.67519981     0.14300
F1623       F  0.04551817  0.58815027  0.71484177    -0.13000
F1624       F  0.05866208  0.52308530  0.66280568    -0.13500
F1625       F  0.01984866  0.55504760  0.71649238    -0.15800
F1626       F  0.08404011  0.55609271  0.66133159    -0.14300
F1627       F  0.10415393  0.57894663  0.70652078    -0.14300
F1628       F  0.07673621  0.63409632  0.64933438    -0.15800
C1629       C  0.06862871  0.43508292  0.70792483     0.14300
C1630       C  0.07465204  0.42503201  0.68993828     0.01300
C1631       C  0.06301908  0.42731068  0.67204759     0.16200
C1632       C  0.04623537  0.44034747  0.67172662     0.25700
C1633       C  0.04075133  0.45149260  0.68936704    -0.40700
C1634       C  0.05174517  0.44823680  0.70768507     0.32700
C1635       C  0.09359815  0.41290236  0.68902277     0.01300
F1636       F  0.06820250  0.41708413  0.65469352    -0.13000
F1637       F  0.04675075  0.45836326  0.72513313    -0.13500
C1638       C  0.09469640  0.39382285  0.69860678     0.16200
C1639       C  0.11088021  0.38060891  0.69399263     0.25700
C1640       C  0.12599420  0.38643508  0.67973435    -0.40600
C1641       C  0.12563315  0.40610083  0.67138633     0.32600
C1642       C  0.10958262  0.41926600  0.67605174     0.14300
F1643       F  0.07933163  0.38742666  0.71114499    -0.13000
F1644       F  0.14038643  0.41223867  0.65800638    -0.13500
F1645       F  0.11082411  0.36156950  0.70206178    -0.15800
F1646       F  0.10898032  0.43785952  0.66700725    -0.14300
F1647       F  0.07959286  0.43281492  0.72543658    -0.14300
F1648       F  0.03549501  0.44213048  0.65400733    -0.15800
C1649       C  0.08966805  0.65594167  0.58050913     0.14300
C1650       C  0.07502979  0.67129456  0.58327641     0.01300
C1651       C  0.07522611  0.68298045  0.60130874     0.16200
C1652       C  0.08964437  0.67896368  0.61668739     0.25700
C1653       C  0.10396736  0.66314146  0.61417631    -0.40700
C1654       C  0.10402998  0.65188796  0.59580744     0.32700
C1655       C  0.05836098  0.67341132  0.56817829     0.01300
F1656       F  0.06100108  0.69774517  0.60428295    -0.13000
F1657       F  0.11802574  0.63695795  0.59260330    -0.13500
C1658       C  0.04129569  0.66032173  0.56936670     0.16200
C1659       C  0.02660349  0.66009214  0.55381349     0.25700
C1660       C  0.02867816  0.67307148  0.53685107    -0.40600
C1661       C  0.04532907  0.68686248  0.53609195     0.32600
C1662       C  0.06019460  0.68691551  0.55164119     0.14300
F1663       F  0.03927100  0.64725348  0.58532254    -0.13000
F1664       F  0.04786170  0.69935470  0.51974558    -0.13500
F1665       F  0.01041528  0.64699992  0.55521018    -0.15800
F1666       F  0.07677435  0.69949622  0.55016950    -0.14300
F1667       F  0.08966530  0.64451439  0.56313228    -0.14300
F1668       F  0.08894737  0.68982848  0.63440097    -0.15800
C1669       C  0.06571143  0.68082269  0.43204276     0.14300
C1670       C  0.07122909  0.66184313  0.42375110     0.01300
C1671       C  0.05962461  0.64447723  0.42868304     0.16200
C1672       C  0.04287558  0.64590836  0.44185535     0.25700
C1673       C  0.03727417  0.66484954  0.45043361    -0.40700
C1674       C  0.04884783  0.68234860  0.44530658     0.32700
C1675       C  0.08882077  0.65984515  0.40962545     0.01300
F1676       F  0.06433183  0.62606454  0.42040383    -0.13000
F1677       F  0.04418997  0.70082586  0.45343528    -0.13500
C1678       C  0.10505243  0.64669468  0.41447715     0.16200
C1679       C  0.12034506  0.64259114  0.40008058     0.25700
C1680       C  0.11972753  0.65170043  0.38067784    -0.40600
C1681       C  0.10387990  0.66541834  0.37605442     0.32600
C1682       C  0.08850313  0.66944155  0.39045009     0.14300
F1683       F  0.10580253  0.63748271  0.43304315    -0.13000
F1684       F  0.10255843  0.67391348  0.35718516    -0.13500
F1685       F  0.13569860  0.62958620  0.40503877    -0.15800
F1686       F  0.07266820  0.68176799  0.38525941    -0.14300
F1687       F  0.07690845  0.69777324  0.42760388    -0.14300
F1688       F  0.03199593  0.62865258  0.44591507    -0.15800
C1689       C  0.90525623  0.64698285  0.59392047     0.14300
C1690       C  0.89840312  0.65871677  0.57740441     0.01300
C1691       C  0.87815718  0.66588670  0.57715903     0.16200
C1692       C  0.86475349  0.66108090  0.59320959     0.25700
C1693       C  0.87151908  0.64902624  0.60963423    -0.40700
C1694       C  0.89190033  0.64209883  0.60987974     0.32700
C1695       C  0.91204247  0.66183046  0.55973478     0.01300
F1696       F  0.87116563  0.67670819  0.56094540    -0.13000
F1697       F  0.89887981  0.63044741  0.62547300    -0.13500
C1698       C  0.91643257  0.64526624  0.54694253     0.16200
C1699       C  0.93106627  0.64716677  0.53151682     0.25700
C1700       C  0.94185156  0.66568322  0.52877536    -0.40600
C1701       C  0.93662982  0.68263200  0.54099257     0.32600
C1702       C  0.92177101  0.68067393  0.55640477     0.14300
F1703       F  0.90685793  0.62703194  0.54977471    -0.13000
F1704       F  0.94657685  0.70074178  0.53877166    -0.13500
F1705       F  0.93488022  0.63068789  0.51948389    -0.15800
F1706       F  0.91756402  0.69684653  0.56869882    -0.14300
F1707       F  0.92482354  0.63990771  0.59432402    -0.14300
F1708       F  0.84488601  0.66717827  0.59212047    -0.15800
C1709       C  0.92501008  0.55193912  0.66061077     0.14300
C1710       C  0.92020820  0.56469970  0.67720343     0.01300
C1711       C  0.93170739  0.56343623  0.69530221     0.16200
C1712       C  0.94753798  0.54919708  0.69697161     0.25700
C1713       C  0.95219567  0.53612409  0.68045135    -0.40700
C1714       C  0.94088472  0.53782782  0.66215578     0.32700
C1715       C  0.90309079  0.57920678  0.67532474     0.01300
F1716       F  0.92737031  0.57576370  0.71145075    -0.13000
F1717       F  0.94480562  0.52551974  0.64587253    -0.13500
C1718       C  0.88298417  0.57185421  0.67233669     0.16200
C1719       C  0.86722723  0.58526024  0.66725510     0.25700
C1720       C  0.87148484  0.60605885  0.66476709    -0.40600
C1721       C  0.89116612  0.61367774  0.66934891     0.32600
C1722       C  0.90694973  0.60028861  0.67460833     0.14300
F1723       F  0.87883468  0.55158867  0.67361183    -0.13000
F1724       F  0.89530227  0.63391726  0.66771202    -0.13500
F1725       F  0.84793720  0.57789354  0.66415349    -0.15800
F1726       F  0.92623199  0.60771444  0.67769782    -0.14300
F1727       F  0.91431036  0.55324320  0.64281626    -0.14300
F1728       F  0.95847295  0.54841700  0.71464586    -0.15800
C1729       C  0.79694837  0.54899818  0.55642118     0.14300
C1730       C  0.81425175  0.56150230  0.55952759     0.01300
C1731       C  0.83095649  0.56015495  0.54604764     0.16200
C1732       C  0.83103348  0.54555101  0.53048741     0.25700
C1733       C  0.81437211  0.53189853  0.52816564    -0.40700
C1734       C  0.79696076  0.53427802  0.54079737     0.32700
C1735       C  0.81622215  0.57429110  0.57804945     0.01300
F1736       F  0.84758129  0.57255670  0.54848779    -0.13000
F1737       F  0.78048853  0.52161066  0.53887854    -0.13500
C1738       C  0.83020592  0.56856893  0.59326656     0.16200
C1739       C  0.83435652  0.58152424  0.60974081     0.25700
C1740       C  0.82450213  0.60049145  0.61139705    -0.40600
C1741       C  0.80981443  0.60584462  0.59649818     0.32600
C1742       C  0.80570565  0.59279112  0.57993676     0.14300
F1743       F  0.84034804  0.55059078  0.59178247    -0.13000
F1744       F  0.80052010  0.62430087  0.59712779    -0.13500
F1745       F  0.84839700  0.57559311  0.62378538    -0.15800
F1746       F  0.79234369  0.59869067  0.56518108    -0.14300
F1747       F  0.78057242  0.55027119  0.56923294    -0.14300
F1748       F  0.84767047  0.54451933  0.51797164    -0.15800
C1749       C  0.76772834  0.69999463  0.71053133     0.14300
C1750       C  0.78455677  0.70563030  0.69839180     0.01300
C1751       C  0.79116202  0.72599843  0.69856527     0.16200
C1752       C  0.78223098  0.74012565  0.71187135     0.25700
C1753       C  0.76658954  0.73425082  0.72586190    -0.40700
C1754       C  0.75835026  0.71417928  0.72349429     0.32700
C1755       C  0.79553921  0.69022788  0.68590068     0.01300
F1756       F  0.80652955  0.73221727  0.68592879    -0.13000
F1757       F  0.74075495  0.70808668  0.73283827    -0.13500
C1758       C  0.78509041  0.67837750  0.67126248     0.16200
C1759       C  0.79551835  0.66370823  0.65967111     0.25700
C1760       C  0.81677748  0.66025978  0.66277438    -0.40600
C1761       C  0.82724511  0.67308136  0.67685623     0.32600
C1762       C  0.81672286  0.68751047  0.68848651     0.14300
F1763       F  0.76480385  0.68149861  0.66764915    -0.13000
F1764       F  0.84792991  0.67179344  0.67930967    -0.13500
F1765       F  0.78474441  0.65417722  0.64469345    -0.15800
F1766       F  0.82728791  0.69873174  0.70252940    -0.14300
F1767       F  0.76048750  0.68053004  0.71012988    -0.14300
F1768       F  0.78977614  0.75943803  0.71179449    -0.15800
C1769       C  0.90378577  0.65926080  0.37840151     0.14300
C1770       C  0.90441390  0.64768983  0.39641314     0.01300
C1771       C  0.89024359  0.63173785  0.39919139     0.16200
C1772       C  0.87586885  0.62710681  0.38396472     0.25700
C1773       C  0.87571766  0.63810850  0.36550109    -0.40700
C1774       C  0.88959853  0.65446712  0.36298768     0.32700
C1775       C  0.92021793  0.65181484  0.41211498     0.01300
F1776       F  0.89044755  0.62056714  0.41664755    -0.13000
F1777       F  0.89021491  0.66510745  0.34521424    -0.13500
C1778       C  0.91907891  0.66930402  0.42447115     0.16200
C1779       C  0.93371715  0.67281174  0.43981367     0.25700
C1780       C  0.94972240  0.65881261  0.44300569    -0.40600
C1781       C  0.95091152  0.64141215  0.43036327     0.32600
C1782       C  0.93627306  0.63796443  0.41506409     0.14300
F1783       F  0.90340866  0.68264317  0.42204947    -0.13000
F1784       F  0.96638185  0.62781500  0.43265526    -0.13500
F1785       F  0.93172331  0.68944420  0.45206476    -0.15800
F1786       F  0.93777762  0.62110651  0.40304121    -0.14300
F1787       F  0.91749978  0.67464902  0.37541527    -0.14300
F1788       F  0.86206913  0.61186258  0.38731940    -0.15800
C1789       C  0.83488195  0.55481854  0.37058527     0.14300
C1790       C  0.82173870  0.56000846  0.38681036     0.01300
C1791       C  0.81069001  0.57835372  0.38595307     0.16200
C1792       C  0.81419603  0.59213216  0.36998395     0.25700
C1793       C  0.82886460  0.58769873  0.35485295    -0.40700
C1794       C  0.83841556  0.56856204  0.35473661     0.32700
C1795       C  0.82114296  0.54717966  0.40536586     0.01300
F1796       F  0.79778884  0.58364329  0.40139635    -0.13000
F1797       F  0.85210896  0.56366311  0.33983961    -0.13500
C1798       C  0.83936544  0.54340887  0.41621238     0.16200
C1799       C  0.83913748  0.53114825  0.43363638     0.25700
C1800       C  0.82056644  0.52247332  0.44071454    -0.40600
C1801       C  0.80225635  0.52657958  0.42989340     0.32600
C1802       C  0.80259639  0.53878114  0.41239521     0.14300
F1803       F  0.85744424  0.55184022  0.41002796    -0.13000
F1804       F  0.78395490  0.51861153  0.43598626    -0.13500
F1805       F  0.85718464  0.52783049  0.44347392    -0.15800
F1806       F  0.78484012  0.54202880  0.40203373    -0.14300
F1807       F  0.84508492  0.53682583  0.37064065    -0.14300
F1808       F  0.80471978  0.61050349  0.37036559    -0.15800
C1809       C  0.89736531  0.56735518  0.29121212     0.14300
C1810       C  0.91453715  0.56530493  0.30401769     0.01300
C1811       C  0.91703715  0.57850147  0.32077073     0.16200
C1812       C  0.90220807  0.59309560  0.32519496     0.25700
C1813       C  0.88439843  0.59454414  0.31309749    -0.40700
C1814       C  0.88230016  0.58187195  0.29575810     0.32700
C1815       C  0.92901848  0.54831479  0.30141546     0.01300
F1816       F  0.93362760  0.57678330  0.33324257    -0.13000
F1817       F  0.86511368  0.58263246  0.28401511    -0.13500
C1818       C  0.94475490  0.54917219  0.28673517     0.16200
C1819       C  0.96022898  0.53438711  0.28660388     0.25700
C1820       C  0.96015463  0.51874142  0.30131661    -0.40600
C1821       C  0.94379228  0.51747774  0.31533961     0.32600
C1822       C  0.92835336  0.53211556  0.31534226     0.14300
F1823       F  0.94569908  0.56488670  0.27329799    -0.13000
F1824       F  0.94290410  0.50219307  0.32928122    -0.13500
F1825       F  0.97592097  0.53611946  0.27300316    -0.15800
F1826       F  0.91304905  0.53091501  0.32943963    -0.14300
F1827       F  0.89469182  0.55461100  0.27499914    -0.14300
F1828       F  0.90517990  0.60562553  0.34153348    -0.15800
C1829       C  0.80231192  0.67608283  0.30647359     0.14300
C1830       C  0.80330622  0.67743128  0.28508553     0.01300
C1831       C  0.81497911  0.66315259  0.27418379     0.16200
C1832       C  0.82619398  0.64824914  0.28444860     0.25700
C1833       C  0.82642129  0.64757471  0.30613855    -0.40700
C1834       C  0.81338992  0.66115269  0.31682608     0.32700
C1835       C  0.79188564  0.69345580  0.27404995     0.01300
F1836       F  0.81509959  0.66328580  0.25338901    -0.13000
F1837       F  0.81151138  0.66013342  0.33750916    -0.13500
C1838       C  0.80213041  0.70642754  0.26040499     0.16200
C1839       C  0.79137576  0.72110985  0.24939501     0.25700
C1840       C  0.77004847  0.72446952  0.25298732    -0.40600
C1841       C  0.75986552  0.71051983  0.26619481     0.32600
C1842       C  0.77061694  0.69536310  0.27652830     0.14300
F1843       F  0.82272969  0.70475697  0.25751421    -0.13000
F1844       F  0.73935274  0.71178409  0.26955112    -0.13500
F1845       F  0.80200819  0.73086993  0.23446601    -0.15800
F1846       F  0.76009208  0.68225362  0.28875614    -0.14300
F1847       F  0.79093745  0.68954458  0.31744136    -0.14300
F1848       F  0.83557157  0.63403572  0.27272935    -0.15800
C1849       C  0.81412950  0.40671837  0.43316260     0.14300
C1850       C  0.83291975  0.40457784  0.42285167     0.01300
C1851       C  0.84851564  0.41913616  0.42585343     0.16200
C1852       C  0.84554293  0.43549435  0.43919501     0.25700
C1853       C  0.82681803  0.43763487  0.44984785    -0.40700
C1854       C  0.81107158  0.42312350  0.44657507     0.32700
C1855       C  0.83663929  0.38711603  0.40906924     0.01300
F1856       F  0.86663098  0.41758642  0.41563760    -0.13000
F1857       F  0.79293645  0.42444768  0.45675955    -0.13500
C1858       C  0.82565899  0.38502004  0.39067169     0.16200
C1859       C  0.83101252  0.36986819  0.37653068     0.25700
C1860       C  0.84737109  0.35657760  0.38070503    -0.40600
C1861       C  0.85765797  0.35815772  0.39959263     0.32600
C1862       C  0.85237064  0.37333195  0.41360564     0.14300
F1863       F  0.81047839  0.39830588  0.38596931    -0.13000
F1864       F  0.87288404  0.34502767  0.40454706    -0.13500
F1865       F  0.82099561  0.36896375  0.35832053    -0.15800
F1866       F  0.86283900  0.37480999  0.43154037    -0.14300
F1867       F  0.79895999  0.39263020  0.43062876    -0.14300
F1868       F  0.86096119  0.44938450  0.44139887    -0.15800
C1869       C  0.93158590  0.31277946  0.39183901     0.14300
C1870       C  0.92524336  0.30462576  0.41064116     0.01300
C1871       C  0.90481657  0.29806570  0.41315162     0.16200
C1872       C  0.89064463  0.30041183  0.39721788     0.25700
C1873       C  0.89678795  0.30954340  0.37876647    -0.40700
C1874       C  0.91740977  0.31532802  0.37602643     0.32700
C1875       C  0.93936343  0.30528215  0.42824363     0.01300
F1876       F  0.89839450  0.29050564  0.43140179    -0.13000
F1877       F  0.92358427  0.32424890  0.35831660    -0.13500
C1878       C  0.94064002  0.32304981  0.44015540     0.16200
C1879       C  0.95462939  0.32441165  0.45630667     0.25700
C1880       C  0.96765223  0.30793394  0.46085036    -0.40600
C1881       C  0.96611398  0.28999233  0.44894001     0.32600
C1882       C  0.95208552  0.28873790  0.43271694     0.14300
F1883       F  0.92836490  0.33917851  0.43599735    -0.13000
F1884       F  0.97851690  0.27385255  0.45260815    -0.13500
F1885       F  0.95520070  0.34181726  0.46761586    -0.15800
F1886       F  0.95110862  0.27151368  0.42116803    -0.14300
F1887       F  0.95127692  0.31923859  0.38922408    -0.14300
F1888       F  0.87063453  0.29532464  0.40036686    -0.15800
C1889       C  0.92344807  0.36586186  0.30733145     0.14300
C1890       C  0.92355499  0.38564577  0.31560094     0.01300
C1891       C  0.90817854  0.39136258  0.32950889     0.16200
C1892       C  0.89336680  0.37727438  0.33578250     0.25700
C1893       C  0.89369689  0.35720468  0.32826233    -0.40700
C1894       C  0.90853518  0.35167708  0.31360970     0.32700
C1895       C  0.94069667  0.39990499  0.31167721     0.01300
F1896       F  0.90795639  0.41049646  0.33751188    -0.13000
F1897       F  0.90935700  0.33227363  0.30637463    -0.13500
C1898       C  0.94212048  0.41075436  0.29323879     0.16200
C1899       C  0.95659848  0.42656735  0.29115267     0.25700
C1900       C  0.96970340  0.43168493  0.30757876    -0.40600
C1901       C  0.96896558  0.41983079  0.32552686     0.32600
C1902       C  0.95457557  0.40416347  0.32753443     0.14300
F1903       F  0.92881850  0.40672163  0.27772091    -0.13000
F1904       F  0.98199195  0.42358334  0.34136652    -0.13500
F1905       F  0.95698484  0.43754425  0.27358415    -0.15800
F1906       F  0.95369866  0.39350791  0.34530852    -0.14300
F1907       F  0.93838415  0.36002483  0.29407455    -0.14300
F1908       F  0.87883589  0.38317754  0.34946305    -0.15800
C1909       C  0.82389921  0.27247281  0.30949270     0.14300
C1910       C  0.81081690  0.28414157  0.29722960     0.01300
C1911       C  0.81110889  0.30539936  0.29926632     0.16200
C1912       C  0.82455172  0.31486480  0.31301209     0.25700
C1913       C  0.83826981  0.30336680  0.32515770    -0.40700
C1914       C  0.83752328  0.28184244  0.32323276     0.32700
C1915       C  0.79709894  0.27418822  0.28205268     0.01300
F1916       F  0.79874768  0.31712041  0.28747030    -0.13000
F1917       F  0.84986453  0.26942659  0.33409513    -0.13500
C1918       C  0.77588170  0.27738235  0.28274916     0.16200
C1919       C  0.76300434  0.26861030  0.26804910     0.25700
C1920       C  0.77090865  0.25629911  0.25191183    -0.40600
C1921       C  0.79231632  0.25198941  0.25245407     0.32600
C1922       C  0.80517257  0.26137946  0.26687738     0.14300
F1923       F  0.76752116  0.28898621  0.29782667    -0.13000
F1924       F  0.80109268  0.23791864  0.24005680    -0.13500
F1925       F  0.74265807  0.27281472  0.26926263    -0.15800
F1926       F  0.82571020  0.25791381  0.26597664    -0.14300
F1927       F  0.82342966  0.25180728  0.30822611    -0.14300
F1928       F  0.82443704  0.33555165  0.31413037    -0.15800
C1929       C  0.91587945  0.38456821  0.65830460     0.14300
C1930       C  0.91206913  0.39969126  0.67301380     0.01300
C1931       C  0.89315532  0.40010512  0.68328748     0.16200
C1932       C  0.87775665  0.38607215  0.67816007     0.25700
C1933       C  0.88121838  0.37150121  0.66272233    -0.40700
C1934       C  0.90053774  0.37053258  0.65317752     0.32700
C1935       C  0.92680607  0.41648798  0.67572612     0.01300
F1936       F  0.88925483  0.41481551  0.69741485    -0.13000
F1937       F  0.90450650  0.35612506  0.63877001    -0.13500
C1938       C  0.92862632  0.43121191  0.66034057     0.16200
C1939       C  0.94243326  0.44738214  0.66255584     0.25700
C1940       C  0.95461906  0.44906777  0.68028575    -0.40600
C1941       C  0.95261140  0.43432630  0.69580031     0.32600
C1942       C  0.93876198  0.41810391  0.69349854     0.14300
F1943       F  0.91678647  0.42999510  0.64325026    -0.13000
F1944       F  0.96449006  0.43524837  0.71286818    -0.13500
F1945       F  0.94358176  0.46157844  0.64751388    -0.15800
F1946       F  0.93726419  0.40378759  0.70838763    -0.14300
F1947       F  0.93427536  0.38382534  0.64851418    -0.14300
F1948       F  0.85909513  0.38751719  0.68734370    -0.15800
C1949       C  0.83195609  0.40872669  0.60290978     0.14300
C1950       C  0.81992359  0.40284652  0.58606826     0.01300
C1951       C  0.81100507  0.38329745  0.58551194     0.16200
C1952       C  0.81504641  0.36937545  0.60120271     0.25700
C1953       C  0.82809681  0.37494069  0.61745545    -0.40700
C1954       C  0.83605614  0.39485664  0.61848048     0.32700
C1955       C  0.81887067  0.41640080  0.56818991     0.01300
F1956       F  0.79947970  0.37734663  0.56920483    -0.13000
F1957       F  0.84844839  0.40062208  0.63421982    -0.13500
C1958       C  0.83598901  0.41807750  0.55524102     0.16200
C1959       C  0.83608898  0.43208293  0.53921043     0.25700
C1960       C  0.81898187  0.44466255  0.53583596    -0.40600
C1961       C  0.80160689  0.44258534  0.54860333     0.32600
C1962       C  0.80160248  0.42856003  0.56471079     0.14300
F1963       F  0.85270232  0.40616816  0.55827277    -0.13000
F1964       F  0.78489890  0.45457822  0.54594145    -0.13500
F1965       F  0.85282531  0.43309203  0.52682082    -0.15800
F1966       F  0.78500854  0.42722522  0.57724945    -0.14300
F1967       F  0.84050568  0.42764902  0.60374139    -0.14300
F1968       F  0.80754642  0.35006459  0.59974732    -0.15800
C1969       C  0.90781321  0.30767900  0.60637379     0.14300
C1970       C  0.90678018  0.31503212  0.58620187     0.01300
C1971       C  0.88916404  0.32557494  0.57983741     0.16200
C1972       C  0.87359756  0.33008302  0.59380974     0.25700
C1973       C  0.87518772  0.32374730  0.61422603    -0.40700
C1974       C  0.89202713  0.31192853  0.62029165     0.32700
C1975       C  0.92492925  0.31396864  0.57255978     0.01300
F1976       F  0.88748709  0.33227537  0.56026775    -0.13000
F1977       F  0.89402285  0.30600919  0.64008187    -0.13500
C1978       C  0.93374350  0.29524319  0.56708503     0.16200
C1979       C  0.95102291  0.29466865  0.55425688     0.25700
C1980       C  0.95978653  0.31289034  0.54664465    -0.40600
C1981       C  0.95092060  0.33162454  0.55248248     0.32600
C1982       C  0.93378722  0.33210361  0.56528802     0.14300
F1983       F  0.92539812  0.27749349  0.57388039    -0.13000
F1984       F  0.95876860  0.34967947  0.54591297    -0.13500
F1985       F  0.95899949  0.27624746  0.54923634    -0.15800
F1986       F  0.92599732  0.35045591  0.57090407    -0.14300
F1987       F  0.92477911  0.29774323  0.61300299    -0.14300
F1988       F  0.85728356  0.34128910  0.58760401    -0.15800
C1989       C  0.76591555  0.28278386  0.71138823     0.14300
C1990       C  0.78717877  0.28439852  0.71351134     0.01300
C1991       C  0.79723607  0.27306184  0.72849376     0.16200
C1992       C  0.78634202  0.25893042  0.74027778     0.25700
C1993       C  0.76502029  0.25534923  0.73672753    -0.40700
C1994       C  0.75486882  0.26889661  0.72317475     0.32700
C1995       C  0.79895055  0.29724203  0.69935946     0.01300
F1996       F  0.81777358  0.27543221  0.73145796    -0.13000
F1997       F  0.73430253  0.26764683  0.72004278    -0.13500
C1998       C  0.80637003  0.31629159  0.70562078     0.16200
C1999       C  0.81758503  0.32839263  0.69203930     0.25700
C2000       C  0.82264711  0.32102244  0.67224542    -0.40600
C2001       C  0.81330731  0.30265655  0.66557856     0.32600
C2002       C  0.80193034  0.29073669  0.67915688     0.14300
F2003       F  0.80230935  0.32335843  0.72475732    -0.13000
F2004       F  0.81454282  0.29641956  0.64578919    -0.13500
F2005       F  0.82258504  0.34759600  0.69811297    -0.15800
F2006       F  0.79375963  0.27276650  0.67259223    -0.14300
F2007       F  0.75589456  0.29432065  0.69740430    -0.14300
F2008       F  0.79684912  0.24947853  0.75540266    -0.15800
C2009       C  0.59118440  0.89413855  0.67941238     0.14300
C2010       C  0.59230228  0.91535688  0.68238655     0.01300
C2011       C  0.61168923  0.92498814  0.68299611     0.16200
C2012       C  0.62957399  0.91372746  0.67964880     0.25700
C2013       C  0.62829968  0.89275406  0.67565353    -0.40700
C2014       C  0.60907756  0.88293482  0.67599222     0.32700
C2015       C  0.57336244  0.92776793  0.68270312     0.01300
F2016       F  0.61319663  0.94550778  0.68542935    -0.13000
F2017       F  0.60757414  0.86268422  0.67185911    -0.07100
C2018       C  0.56921841  0.94102947  0.69911020     0.16200
C2019       C  0.55261359  0.95446278  0.69816569     0.25700
C2020       C  0.53992729  0.95491027  0.68070064    -0.40600
C2021       C  0.54350382  0.94082501  0.66477117     0.32600
C2022       C  0.56009725  0.92747671  0.66573490     0.14300
F2023       F  0.58151360  0.94122078  0.71589658    -0.13000
F2024       F  0.53107318  0.94007407  0.64807998    -0.13500
F2025       F  0.54953836  0.96759666  0.71396477    -0.15800
F2026       F  0.56376100  0.91489438  0.64960110    -0.14300
F2027       F  0.57269535  0.88442505  0.67902929    -0.14300
F2028       F  0.64804844  0.92344740  0.67929049    -0.15800
C2029       C  0.67599781  0.93022321  0.60615994     0.14300
C2030       C  0.68994307  0.92332820  0.59131145     0.01300
C2031       C  0.70050182  0.90503672  0.59453196     0.16200
C2032       C  0.69621336  0.89313711  0.61178450     0.25700
C2033       C  0.68134877  0.89947620  0.62612441    -0.40700
C2034       C  0.67181367  0.91846660  0.62346087     0.32700
C2035       C  0.69206385  0.93443910  0.57177461     0.01300
F2036       F  0.71394010  0.89804766  0.58027951    -0.13000
F2037       F  0.65795603  0.92541545  0.63731275    -0.13500
C2038       C  0.71059664  0.94408509  0.56642130     0.16200
C2039       C  0.71193078  0.95568469  0.54848429     0.25700
C2040       C  0.69468809  0.95775583  0.53556813    -0.40600
C2041       C  0.67640132  0.94721734  0.54065487     0.32600
C2042       C  0.67513538  0.93576698  0.55858063     0.14300
F2043       F  0.72716276  0.94289381  0.57897550    -0.13000
F2044       F  0.65956039  0.94807661  0.52841844    -0.13500
F2045       F  0.72986019  0.96548751  0.54425359    -0.15800
F2046       F  0.65724973  0.92600472  0.56316791    -0.14300
F2047       F  0.66593623  0.94809568  0.60353749    -0.14300
F2048       F  0.70539016  0.87470519  0.61353326    -0.15800
C2049       C  0.60385027  0.83188840  0.61041880     0.14300
C2050       C  0.60346804  0.84281869  0.59195666     0.01300
C2051       C  0.61828215  0.85805392  0.58846559     0.16200
C2052       C  0.63294480  0.86268559  0.60339915     0.25700
C2053       C  0.63298436  0.85223175  0.62216308    -0.40700
C2054       C  0.61849985  0.83657443  0.62545210     0.32700
C2055       C  0.58742266  0.83868588  0.57642871     0.01300
F2056       F  0.61856368  0.86841299  0.57050865    -0.13000
F2057       F  0.61792138  0.82646350  0.64353957    -0.13500
C2058       C  0.57320153  0.85384495  0.57133453     0.16200
C2059       C  0.55830712  0.85022321  0.55628906     0.25700
C2060       C  0.55737383  0.83130006  0.54598600    -0.40600
C2061       C  0.57167151  0.81610079  0.55127588     0.32600
C2062       C  0.58650918  0.81978779  0.56636445     0.14300
F2063       F  0.57361560  0.87212880  0.58115140    -0.13000
F2064       F  0.57169071  0.79778471  0.54153459    -0.13500
F2065       F  0.54464971  0.86518999  0.55207074    -0.15800
F2066       F  0.60036187  0.80506056  0.57080463    -0.14300
F2067       F  0.58956683  0.81719045  0.61415635    -0.14300
F2068       F  0.64724685  0.87729478  0.59940025    -0.15800
C2069       C  0.71913873  0.77610681  0.70568173     0.14300
C2070       C  0.72584340  0.79643256  0.70545942     0.01300
C2071       C  0.74457498  0.80151782  0.71469666     0.16200
C2072       C  0.75587888  0.78682278  0.72517592     0.25700
C2073       C  0.74798540  0.76669522  0.72789501    -0.40700
C2074       C  0.73021109  0.76135603  0.71637510     0.32700
C2075       C  0.71338292  0.81231324  0.69540918     0.01300
F2076       F  0.75218380  0.82078034  0.71321111    -0.13000
F2077       F  0.72265546  0.74203759  0.71660413    -0.13500
C2078       C  0.70484155  0.82823042  0.70694207     0.16200
C2079       C  0.69236913  0.84283637  0.69760982     0.25700
C2080       C  0.68777175  0.84153434  0.67644124    -0.40600
C2081       C  0.69808239  0.82649401  0.66477487     0.32600
C2082       C  0.71028073  0.81181715  0.67422020     0.14300
F2083       F  0.70856131  0.82960383  0.72736119    -0.13000
F2084       F  0.69650453  0.82601789  0.64405146    -0.13500
F2085       F  0.68602003  0.85871623  0.70927190    -0.15800
F2086       F  0.71940183  0.79725682  0.66258848    -0.14300
F2087       F  0.70136274  0.77066806  0.69617757    -0.14300
F2088       F  0.77489470  0.79245064  0.73164103    -0.15800
C2089       C  0.39432375  0.90873253  0.65569039     0.14300
C2090       C  0.41003186  0.90422220  0.66962068     0.01300
C2091       C  0.41101311  0.88474337  0.67836371     0.16200
C2092       C  0.39644467  0.86984835  0.67308313     0.25700
C2093       C  0.38099795  0.87424182  0.65873320    -0.40700
C2094       C  0.37995112  0.89383200  0.65021874     0.32700
C2095       C  0.42607275  0.91960522  0.67373853     0.01300
F2096       F  0.42630519  0.88008605  0.69164850    -0.13000
F2097       F  0.36506472  0.89851106  0.63648364    -0.13500
C2098       C  0.42136218  0.93740926  0.68473563     0.16200
C2099       C  0.43576088  0.95328376  0.68614850     0.25700
C2100       C  0.45479697  0.95161674  0.67617255    -0.40600
C2101       C  0.45973750  0.93349648  0.66579400     0.32600
C2102       C  0.44551392  0.91751757  0.66472167     0.14300
F2103       F  0.40259003  0.93960137  0.69352230    -0.13000
F2104       F  0.47830229  0.93138576  0.65653360    -0.13500
F2105       F  0.43069759  0.97067861  0.69622388    -0.15800
F2106       F  0.45032030  0.90038825  0.65405844    -0.14300
F2107       F  0.39341122  0.92738954  0.64681243    -0.14300
F2108       F  0.39808171  0.85086953  0.68110986    -0.15800
C2109       C  0.42307040  0.82795504  0.60464480     0.14300
C2110       C  0.41960227  0.81741364  0.58625234     0.01300
C2111       C  0.39994204  0.80946049  0.58201642     0.16200
C2112       C  0.38374153  0.81263163  0.59581384     0.25700
C2113       C  0.38706446  0.82401750  0.61377391    -0.40700
C2114       C  0.40689741  0.83133200  0.61825198     0.32700
C2115       C  0.43603396  0.81679433  0.57070980     0.01300
F2116       F  0.39630079  0.79942633  0.56415778    -0.13000
F2117       F  0.41046081  0.84233750  0.63553042    -0.13500
C2118       C  0.45137438  0.80190191  0.57141897     0.16200
C2119       C  0.46777873  0.80246054  0.55750843     0.25700
C2120       C  0.46916747  0.81812546  0.54281860    -0.40600
C2121       C  0.45359656  0.83296963  0.54220217     0.32600
C2122       C  0.43719404  0.83224174  0.55599129     0.14300
F2123       F  0.45060053  0.78702897  0.58579634    -0.13000
F2124       F  0.45406495  0.84813274  0.52811478    -0.13500
F2125       F  0.48257512  0.78803237  0.55883639    -0.15800
F2126       F  0.42255283  0.84687983  0.55524775    -0.14300
F2127       F  0.44193824  0.83584791  0.60891073    -0.14300
F2128       F  0.36459876  0.80576221  0.59105072    -0.15800
C2129       C  0.31561803  0.89919563  0.59837413     0.14300
C2130       C  0.32467750  0.89815150  0.57882825     0.01300
C2131       C  0.33673745  0.88117753  0.57370298     0.16200
C2132       C  0.34109307  0.86641437  0.58832539     0.25700
C2133       C  0.33311519  0.86807651  0.60820843    -0.40700
C2134       C  0.31971686  0.88412949  0.61296440     0.32700
C2135       C  0.32326475  0.91537468  0.56428799     0.01300
F2136       F  0.34495573  0.87930858  0.55467659    -0.13000
F2137       F  0.31188749  0.88604737  0.63213578    -0.13500
C2138       C  0.34138896  0.92439577  0.55681753     0.16200
C2139       C  0.34060082  0.93955118  0.54195453     0.25700
C2140       C  0.32154484  0.94635427  0.53433456    -0.40600
C2141       C  0.30332150  0.93789964  0.54254193     0.32600
C2142       C  0.30420703  0.92249682  0.55732655     0.14300
F2143       F  0.36002548  0.91840416  0.56388397    -0.13000
F2144       F  0.28460047  0.94419180  0.53604638    -0.13500
F2145       F  0.35867076  0.94723246  0.53486121    -0.15800
F2146       F  0.28644985  0.91406358  0.56431382    -0.14300
F2147       F  0.30397364  0.91544984  0.60376924    -0.14300
F2148       F  0.35369775  0.85078128  0.58324418    -0.15800
C2149       C  0.30736842  0.81215071  0.69635553     0.14300
C2150       C  0.30238655  0.79223585  0.69030800     0.01300
C2151       C  0.30950383  0.78487929  0.67147362     0.16200
C2152       C  0.32194935  0.79707102  0.65901428     0.25700
C2153       C  0.32838465  0.81668710  0.66558160    -0.40700
C2154       C  0.31976862  0.82444477  0.68395388     0.32700
C2155       C  0.28894675  0.77940745  0.70319656     0.01300
F2156       F  0.30379713  0.76603948  0.66483369    -0.13000
F2157       F  0.32239884  0.84419936  0.68964558    -0.13500
C2158       C  0.26817543  0.78421582  0.70560093     0.16200
C2159       C  0.25541831  0.77209159  0.71779871     0.25700
C2160       C  0.26333568  0.75528773  0.72886192    -0.40600
C2161       C  0.28407837  0.74968596  0.72471561     0.32600
C2162       C  0.29669101  0.76190423  0.71247238     0.14300
F2163       F  0.26020342  0.80071089  0.69603439    -0.13000
F2164       F  0.29225386  0.73192250  0.73130719    -0.13500
F2165       F  0.23540322  0.77747412  0.71962629    -0.15800
F2166       F  0.31662341  0.75656018  0.70960231    -0.14300
F2167       F  0.30006347  0.81976659  0.71428172    -0.14300
F2168       F  0.32674442  0.78990034  0.64011531    -0.15800
C2169       C  0.45614807  0.82141630  0.42653594     0.14300
C2170       C  0.44233134  0.80498983  0.42796139     0.01300
C2171       C  0.44473292  0.79058268  0.44357135     0.16200
C2172       C  0.46042485  0.79302594  0.45809504     0.25700
C2173       C  0.47370999  0.81007183  0.45724964    -0.40700
C2174       C  0.47164950  0.82401203  0.44108480     0.32700
C2175       C  0.42414997  0.80467285  0.41452810     0.01300
F2176       F  0.43137979  0.77468699  0.44522174    -0.13000
F2177       F  0.48456081  0.84026854  0.43943229    -0.13500
C2178       C  0.42427308  0.79400757  0.39586350     0.16200
C2179       C  0.40862792  0.79718675  0.38149082     0.25700
C2180       C  0.39281163  0.81115761  0.38568661    -0.40600
C2181       C  0.39210421  0.82073414  0.40495118     0.32600
C2182       C  0.40766516  0.81751878  0.41923332     0.14300
F2183       F  0.44012358  0.78148993  0.39111998    -0.13000
F2184       F  0.37663308  0.83369867  0.40973869    -0.13500
F2185       F  0.40977992  0.78780610  0.36296897    -0.15800
F2186       F  0.40725483  0.82777734  0.43732295    -0.14300
F2187       F  0.45412569  0.83535448  0.41136158    -0.14300
F2188       F  0.46188431  0.77938043  0.47359509    -0.15800
C2189       C  0.40338556  0.88681532  0.31231596     0.14300
C2190       C  0.42118007  0.89090881  0.32382966     0.01300
C2191       C  0.42622797  0.87801493  0.34017427     0.16200
C2192       C  0.41333245  0.86175957  0.34543410     0.25700
C2193       C  0.39499160  0.85816702  0.33456292    -0.40700
C2194       C  0.39033523  0.87060860  0.31766871     0.32700
C2195       C  0.43397773  0.90921093  0.31972845     0.01300
F2196       F  0.44362425  0.88133314  0.35121143    -0.13000
F2197       F  0.37258118  0.86787392  0.30707328    -0.13500
C2198       C  0.43647432  0.92402788  0.33508412     0.16200
C2199       C  0.44977414  0.94054215  0.33220237     0.25700
C2200       C  0.46101411  0.94261425  0.31383957    -0.40600
C2201       C  0.45770049  0.92824718  0.29803166     0.32600
C2202       C  0.44429508  0.91167441  0.30099109     0.14300
F2203       F  0.42608272  0.92239430  0.35304824    -0.13000
F2204       F  0.46803252  0.92969490  0.28003320    -0.13500
F2205       F  0.45169369  0.95443463  0.34755970    -0.15800
F2206       F  0.44205607  0.89756491  0.28588653    -0.14300
F2207       F  0.39811711  0.89913531  0.29654080    -0.14300
F2208       F  0.41884171  0.84952468  0.36120286    -0.15800
C2209       C  0.34079485  0.89532344  0.38635939     0.14300
C2210       C  0.32912112  0.89094842  0.40389675     0.01300
C2211       C  0.32266724  0.87081335  0.40760986     0.16200
C2212       C  0.32903252  0.85504589  0.39459028     0.25700
C2213       C  0.34198800  0.85936559  0.37793342    -0.40700
C2214       C  0.34729762  0.87962481  0.37354879     0.32700
C2215       C  0.32659589  0.90692187  0.41961031     0.01300
F2216       F  0.31144278  0.86629478  0.42453802    -0.13000
F2217       F  0.35927747  0.88414239  0.35714129    -0.13500
C2218       C  0.30724910  0.91484605  0.42455522     0.16200
C2219       C  0.30558829  0.93086674  0.43872471     0.25700
C2220       C  0.32333683  0.93911221  0.44819594    -0.40600
C2221       C  0.34263107  0.93060898  0.44340682     0.32600
C2222       C  0.34416755  0.91473001  0.42931983     0.14300
F2223       F  0.29007949  0.90745180  0.41526013    -0.13000
F2224       F  0.36020973  0.93761185  0.45223916    -0.13500
F2225       F  0.28667025  0.93847778  0.44281719    -0.15800
F2226       F  0.36298242  0.90691269  0.42505996    -0.14300
F2227       F  0.34674078  0.91476382  0.38225338    -0.14300
F2228       F  0.32374582  0.83549587  0.39899838    -0.15800
C2229       C  0.32569917  0.77191480  0.31188047     0.14300
C2230       C  0.31302566  0.78334385  0.29903963     0.01300
C2231       C  0.31461094  0.80456731  0.29907220     0.16200
C2232       C  0.32838788  0.81437936  0.31216598     0.25700
C2233       C  0.34080496  0.80320060  0.32591870    -0.40700
C2234       C  0.33946935  0.78162266  0.32523917     0.32700
C2235       C  0.29772430  0.77317552  0.28589428     0.01300
F2236       F  0.30265659  0.81583030  0.28643918    -0.13000
F2237       F  0.35103451  0.76952460  0.33726404    -0.13500
C2238       C  0.27680795  0.77478260  0.29042100     0.16200
C2239       C  0.26221667  0.76499692  0.27815577     0.25700
C2240       C  0.26820241  0.75262343  0.26130837    -0.40600
C2241       C  0.28945875  0.75277521  0.25596252     0.32600
C2242       C  0.30394016  0.76249502  0.26846169     0.14300
F2243       F  0.27052520  0.78550127  0.30708570    -0.13000
F2244       F  0.29654106  0.74473933  0.23817872    -0.13500
F2245       F  0.24215342  0.76670289  0.28352174    -0.15800
F2246       F  0.32412624  0.76199344  0.26318956    -0.14300
F2247       F  0.32434109  0.75124725  0.31183873    -0.14300
F2248       F  0.32923303  0.83507376  0.31172469    -0.15800
C2249       C  0.68049167  0.91593229  0.38090444     0.14300
C2250       C  0.69637361  0.91276220  0.39500882     0.01300
C2251       C  0.70845738  0.89518237  0.39355898     0.16200
C2252       C  0.70318503  0.87982764  0.37956402     0.25700
C2253       C  0.68582172  0.88210743  0.36697345    -0.40700
C2254       C  0.67532065  0.90074576  0.36687963     0.32700
C2255       C  0.69780786  0.92608359  0.41307008     0.01300
F2256       F  0.72411284  0.89211835  0.40690794    -0.13000
F2257       F  0.65923686  0.90377840  0.35402238    -0.13500
C2258       C  0.68148840  0.92616122  0.42711243     0.16200
C2259       C  0.68156319  0.93973288  0.44353317     0.25700
C2260       C  0.69805688  0.95344793  0.44622429    -0.40600
C2261       C  0.71489471  0.95266605  0.43263628     0.32600
C2262       C  0.71471939  0.93905405  0.41610950     0.14300
F2263       F  0.66530465  0.91317987  0.42470858    -0.13000
F2264       F  0.73104994  0.96570938  0.43472646    -0.13500
F2265       F  0.66542457  0.93948488  0.45672622    -0.15800
F2266       F  0.73061174  0.93908988  0.40263917    -0.14300
F2267       F  0.66904024  0.93315166  0.38176742    -0.14300
F2268       F  0.71377747  0.86207466  0.37974681    -0.15800
C2269       C  0.62615064  0.84038879  0.41788536     0.14300
C2270       C  0.60949582  0.82695848  0.41479909     0.01300
C2271       C  0.60859024  0.81528588  0.39672425     0.16200
C2272       C  0.62364625  0.81760146  0.38162242     0.25700
C2273       C  0.63968702  0.83179926  0.38427082    -0.40700
C2274       C  0.64109690  0.84284949  0.40268794     0.32700
C2275       C  0.59263443  0.82575396  0.42999939     0.01300
F2276       F  0.59244524  0.80254904  0.39316212    -0.13000
F2277       F  0.65670594  0.85636996  0.40573651    -0.13500
C2278       C  0.58124527  0.84319341  0.43496821     0.16200
C2279       C  0.56528293  0.84214054  0.44928526     0.25700
C2280       C  0.56036410  0.82353173  0.45901708    -0.40600
C2281       C  0.57163003  0.80599084  0.45360952     0.32600
C2282       C  0.58758894  0.80714241  0.43929662     0.14300
F2283       F  0.58535158  0.86123537  0.42563420    -0.13000
F2284       F  0.56736921  0.78763494  0.46219428    -0.13500
F2285       F  0.55462150  0.85939758  0.45342553    -0.15800
F2286       F  0.59838554  0.79007556  0.43474208    -0.14300
F2287       F  0.62769844  0.85139840  0.43546866    -0.14300
F2288       F  0.62164867  0.80715442  0.36374265    -0.15800
C2289       C  0.59410059  0.88510996  0.33863444     0.14300
C2290       C  0.59564949  0.89819116  0.32175103     0.01300
C2291       C  0.61288278  0.89696420  0.30883965     0.16200
C2292       C  0.62873538  0.88329758  0.31321689     0.25700
C2293       C  0.62747013  0.87069243  0.33052999    -0.40700
C2294       C  0.60985025  0.87146926  0.34298374     0.32700
C2295       C  0.57994495  0.91405091  0.31865377     0.01300
F2296       F  0.61483836  0.90975927  0.29266480    -0.13000
F2297       F  0.60796600  0.85918484  0.35956494    -0.13500
C2298       C  0.57763720  0.92952431  0.33334030     0.16200
C2299       C  0.56234399  0.94417059  0.33115429     0.25700
C2300       C  0.54898065  0.94362839  0.31419228    -0.40600
C2301       C  0.55157711  0.92829713  0.29924630     0.32600
C2302       C  0.56695327  0.91360050  0.30150156     0.14300
F2303       F  0.59036674  0.93051050  0.34979419    -0.13000
F2304       F  0.53885387  0.92712081  0.28281116    -0.13500
F2305       F  0.56088865  0.95912317  0.34550537    -0.15800
F2306       F  0.56880298  0.89858765  0.28727066    -0.14300
F2307       F  0.57745224  0.88586320  0.35115597    -0.14300
F2308       F  0.64585910  0.88331304  0.30133779    -0.15800
C2309       C  0.73634114  0.76936859  0.29011848     0.14300
C2310       C  0.72165639  0.78213815  0.28135849     0.01300
C2311       C  0.71910340  0.78222857  0.26015058     0.16200
C2312       C  0.73058395  0.76919030  0.24782213     0.25700
C2313       C  0.74468969  0.75508196  0.25639772    -0.40700
C2314       C  0.74802073  0.75628739  0.27790701     0.32700
C2315       C  0.70876435  0.79516863  0.29445693     0.01300
F2316       F  0.70502631  0.79463213  0.25135536    -0.13000
F2317       F  0.76324781  0.74594179  0.28737330    -0.13500
C2318       C  0.71007622  0.81643111  0.29319312     0.16200
C2319       C  0.69802709  0.82862908  0.30593614     0.25700
C2320       C  0.68482572  0.81980289  0.32074869    -0.40600
C2321       C  0.68233946  0.79833021  0.32048747     0.32600
C2322       C  0.69452108  0.78623448  0.30778754     0.14300
F2323       F  0.72323335  0.82538845  0.27976438    -0.13000
F2324       F  0.66728077  0.78879294  0.33116498    -0.13500
F2325       F  0.69929886  0.84917458  0.30371935    -0.15800
F2326       F  0.69193587  0.76567544  0.30800254    -0.14300
F2327       F  0.73976345  0.76997602  0.31062065    -0.14300
F2328       F  0.72716779  0.76985173  0.22736566    -0.15800
C2329       C  0.42121425  0.15018141  0.37927772     0.14300
C2330       C  0.41682239  0.16543415  0.39370468     0.01300
C2331       C  0.39813774  0.17594798  0.39245359     0.16200
C2332       C  0.38346343  0.17032499  0.37770470     0.25700
C2333       C  0.38740873  0.15414887  0.36402134    -0.40700
C2334       C  0.40671305  0.14464043  0.36454858     0.32700
C2335       C  0.43088967  0.16843285  0.41122565     0.01300
F2336       F  0.39362298  0.19075630  0.40627988    -0.13000
F2337       F  0.41150714  0.12968108  0.35100195    -0.13500
C2338       C  0.44242181  0.18644344  0.41367328     0.16200
C2339       C  0.45741676  0.18786360  0.42907660     0.25700
C2340       C  0.46104948  0.17120711  0.44216917    -0.40600
C2341       C  0.44853797  0.15367558  0.44027892     0.32600
C2342       C  0.43370827  0.15232408  0.42495695     0.14300
F2343       F  0.43976456  0.20226708  0.40062986    -0.13000
F2344       F  0.45064206  0.13767647  0.45322766    -0.13500
F2345       F  0.46887859  0.20516667  0.43059509    -0.15800
F2346       F  0.42223296  0.13502758  0.42326447    -0.14300
F2347       F  0.43938133  0.14012411  0.37995110    -0.14300
F2348       F  0.36495721  0.17975279  0.37773962    -0.15800
C2349       C  0.31766424  0.07493816  0.37800450     0.14300
C2350       C  0.32781582  0.07423007  0.39693853     0.01300
C2351       C  0.34201909  0.08962106  0.40211160     0.16200
C2352       C  0.34671109  0.10503392  0.38818251     0.25700
C2353       C  0.33728192  0.10526287  0.36885625    -0.40700
C2354       C  0.32236089  0.09038982  0.36401984     0.32700
C2355       C  0.32493982  0.05673435  0.41078553     0.01300
F2356       F  0.35167594  0.08941787  0.42053772    -0.13000
F2357       F  0.31330504  0.09007759  0.34529780    -0.13500
C2358       C  0.34158310  0.04388355  0.41473168     0.16200
C2359       C  0.33987548  0.02847110  0.42926241     0.25700
C2360       C  0.32146175  0.02570979  0.44034468    -0.40600
C2361       C  0.30436695  0.03787637  0.43546015     0.32600
C2362       C  0.30613390  0.05329701  0.42076113     0.14300
F2363       F  0.35967086  0.04649721  0.40465544    -0.13000
F2364       F  0.28623961  0.03551416  0.44549449    -0.13500
F2365       F  0.35640513  0.01638836  0.43257691    -0.15800
F2366       F  0.28979109  0.06545910  0.41692416    -0.14300
F2367       F  0.30408400  0.06005449  0.37264688    -0.14300
F2368       F  0.36062999  0.11963160  0.39349886    -0.15800
C2369       C  0.44816320  0.06178014  0.32012129     0.14300
C2370       C  0.43147003  0.06031228  0.30657924     0.01300
C2371       C  0.43055223  0.04407833  0.29251814     0.16200
C2372       C  0.44598198  0.02927223  0.29226002     0.25700
C2373       C  0.46230482  0.03032060  0.30636581    -0.40700
C2374       C  0.46338402  0.04686322  0.32010713     0.32700
C2375       C  0.41438339  0.07494817  0.30834442     0.01300
F2376       F  0.41454170  0.04243834  0.27927985    -0.13000
F2377       F  0.47922057  0.04860127  0.33355231    -0.13500
C2378       C  0.41757971  0.09573761  0.30418128     0.16200
C2379       C  0.40212185  0.10989273  0.30837086     0.25700
C2380       C  0.38349084  0.10343971  0.31709523    -0.40600
C2381       C  0.38008183  0.08264200  0.32077765     0.32600
C2382       C  0.39534961  0.06843745  0.31621087     0.14300
F2383       F  0.43592457  0.10236027  0.29675850    -0.13000
F2384       F  0.36224884  0.07622374  0.32951197    -0.13500
F2385       F  0.40580178  0.13002944  0.30518611    -0.15800
F2386       F  0.39204509  0.04847196  0.32060957    -0.14300
F2387       F  0.44930219  0.07729749  0.33390352    -0.14300
F2388       F  0.44445998  0.01344198  0.27888915    -0.15800
C2389       C  0.27833854  0.21082027  0.28871243     0.14300
C2390       C  0.29248064  0.19962520  0.27721062     0.01300
C2391       C  0.29361393  0.20257597  0.25606407     0.16200
C2392       C  0.28131836  0.21718171  0.24662824     0.25700
C2393       C  0.26814275  0.23002132  0.25826740    -0.40700
C2394       C  0.26595791  0.22539199  0.27944357     0.32700
C2395       C  0.30546323  0.18440559  0.28746208     0.01300
F2396       F  0.30653235  0.19115380  0.24448213    -0.13000
F2397       F  0.25113811  0.23375624  0.29133242    -0.13500
C2398       C  0.29631633  0.16767734  0.29716616     0.16200
C2399       C  0.30814228  0.15426605  0.30868749     0.25700
C2400       C  0.32945353  0.15790233  0.31159237    -0.40600
C2401       C  0.33875769  0.17365156  0.30001140     0.32600
C2402       C  0.32684251  0.18690068  0.28830172     0.14300
F2403       F  0.27580043  0.16420054  0.29526371    -0.13000
F2404       F  0.35946441  0.17637322  0.30013140    -0.13500
F2405       F  0.29862168  0.13725653  0.31570375    -0.15800
F2406       F  0.33611691  0.20256366  0.27829717    -0.14300
F2407       F  0.27639894  0.20752120  0.30914183    -0.14300
F2408       F  0.28303246  0.21934499  0.22605823    -0.15800
C2409       C  0.42129662  0.05721146  0.67922772     0.14300
C2410       C  0.42000584  0.06787322  0.66070671     0.01300
C2411       C  0.43476432  0.06449769  0.64541880     0.16200
C2412       C  0.45043329  0.05037452  0.64842173     0.25700
C2413       C  0.45163248  0.03932093  0.66683701    -0.40700
C2414       C  0.43698196  0.04303354  0.68230176     0.32700
C2415       C  0.40310100  0.08228616  0.65695613     0.01300
F2416       F  0.43405792  0.07505731  0.62758903    -0.13000
F2417       F  0.43740482  0.03249221  0.70013839    -0.13500
C2418       C  0.40197359  0.10072127  0.66787389     0.16200
C2419       C  0.38730337  0.11531525  0.66261331     0.25700
C2420       C  0.37349123  0.11155295  0.64641996    -0.40600
C2421       C  0.37399384  0.09258759  0.63630274     0.32600
C2422       C  0.38874530  0.07814644  0.64145374     0.14300
F2423       F  0.41581809  0.10503271  0.68284495    -0.13000
F2424       F  0.36037726  0.08809017  0.62118700    -0.13500
F2425       F  0.38756538  0.13359762  0.67241165    -0.15800
F2426       F  0.38930895  0.06021482  0.63102043    -0.14300
F2427       F  0.40701797  0.06013963  0.69409300    -0.14300
F2428       F  0.46460821  0.04778084  0.63338764    -0.15800
C2429       C  0.41888169  0.15338136  0.59045052     0.14300
C2430       C  0.41765623  0.16873986  0.57562354     0.01300
C2431       C  0.40015154  0.18114164  0.57488922     0.16200
C2432       C  0.38349306  0.17731898  0.58796701     0.25700
C2433       C  0.38419839  0.16102159  0.60187803    -0.40700
C2434       C  0.40233157  0.14958019  0.60350214     0.32700
C2435       C  0.43345026  0.16994859  0.55941456     0.01300
F2436       F  0.39869527  0.19608149  0.56065152    -0.13000
F2437       F  0.40398067  0.13450522  0.61756447    -0.13500
C2438       C  0.43537459  0.15367891  0.54557174     0.16200
C2439       C  0.45020503  0.15424541  0.53016975     0.25700
C2440       C  0.46351475  0.17115713  0.52827373    -0.40600
C2441       C  0.46144334  0.18759935  0.54209312     0.32600
C2442       C  0.44649685  0.18696818  0.55756697     0.14300
F2443       F  0.42261157  0.13726497  0.54684055    -0.13000
F2444       F  0.47420251  0.20401696  0.54100382    -0.13500
F2445       F  0.45121166  0.13833911  0.51685131    -0.15800
F2446       F  0.44504787  0.20272255  0.57101392    -0.14300
F2447       F  0.43590730  0.14159577  0.59178668    -0.14300
F2448       F  0.36622668  0.18866895  0.58612510    -0.15800
C2449       C  0.32741207  0.10456383  0.56101171     0.14300
C2450       C  0.31927747  0.08587939  0.56792624     0.01300
C2451       C  0.31372214  0.08391784  0.58865836     0.16200
C2452       C  0.31747875  0.09994050  0.60242253     0.25700
C2453       C  0.32711054  0.11791514  0.59568249    -0.40700
C2454       C  0.33162910  0.12031571  0.57486093     0.32700
C2455       C  0.31892696  0.06794684  0.55400269     0.01300
F2456       F  0.30616086  0.06599684  0.59587844    -0.13000
F2457       F  0.34102100  0.13757727  0.56812894    -0.13500
C2458       C  0.33715936  0.06194438  0.54423350     0.16200
C2459       C  0.33727209  0.04536826  0.53081268     0.25700
C2460       C  0.31914450  0.03406466  0.52702238    -0.40600
C2461       C  0.30091773  0.03983837  0.53717909     0.32600
C2462       C  0.30082866  0.05664599  0.55051654     0.14300
F2463       F  0.35508858  0.07201980  0.54793818    -0.13000
F2464       F  0.28318324  0.02916922  0.53439633    -0.13500
F2465       F  0.35523966  0.04060090  0.52141592    -0.15800
F2466       F  0.28299114  0.06204764  0.55979189    -0.14300
F2467       F  0.33217633  0.10717347  0.54094611    -0.14300
F2468       F  0.31332782  0.09727550  0.62261322    -0.15800
C2469       C  0.31113462  0.20478276  0.66163310     0.14300
C2470       C  0.30140065  0.19627013  0.67875266     0.01300
C2471       C  0.30136115  0.17504318  0.68119001     0.16200
C2472       C  0.31212243  0.16264871  0.66749724     0.25700
C2473       C  0.32392046  0.17127138  0.65148216    -0.40700
C2474       C  0.32193929  0.19245700  0.64790938     0.32700
C2475       C  0.29149382  0.20954928  0.69416522     0.01300
F2476       F  0.29135352  0.16631558  0.69719730    -0.13000
F2477       F  0.32928329  0.20134416  0.63067491    -0.13500
C2478       C  0.27059107  0.20735454  0.69865166     0.16200
C2479       C  0.26151447  0.21931767  0.71381044     0.25700
C2480       C  0.27318625  0.23368925  0.72542802    -0.40600
C2481       C  0.29402365  0.23674084  0.71951813     0.32600
C2482       C  0.30302063  0.22451279  0.70445374     0.14300
F2483       F  0.25883688  0.19366590  0.68819747    -0.13000
F2484       F  0.30571813  0.25216784  0.72710980    -0.13500
F2485       F  0.24121043  0.21633386  0.71758874    -0.15800
F2486       F  0.32320809  0.22731493  0.69990139    -0.14300
F2487       F  0.30986108  0.22510625  0.65800252    -0.14300
F2488       F  0.31106059  0.14213971  0.67006246    -0.15800
C2489       C  0.69549769  0.10006941  0.39301789     0.14300
C2490       C  0.68789995  0.07998796  0.39202183     0.01300
C2491       C  0.67605537  0.07384159  0.37509624     0.16200
C2492       C  0.67086410  0.08787185  0.35996977     0.25700
C2493       C  0.67753431  0.10821358  0.36149267    -0.40700
C2494       C  0.69037983  0.11412481  0.37776909     0.32700
C2495       C  0.69006479  0.06614327  0.40966476     0.01300
F2496       F  0.66882635  0.05442134  0.37369938    -0.13000
F2497       F  0.69669563  0.13380417  0.37966149    -0.13500
C2498       C  0.67262156  0.06113732  0.42123338     0.16200
C2499       C  0.67403884  0.04771355  0.43766516     0.25700
C2500       C  0.69302804  0.03880462  0.44286185    -0.40600
C2501       C  0.71063168  0.04416412  0.43137880     0.32600
C2502       C  0.70912908  0.05778478  0.41494134     0.14300
F2503       F  0.65411547  0.06942329  0.41664065    -0.13000
F2504       F  0.72920359  0.03591178  0.43568542    -0.13500
F2505       F  0.65670827  0.04361034  0.44852682    -0.15800
F2506       F  0.72616379  0.06244004  0.40385724    -0.14300
F2507       F  0.70667652  0.10637360  0.40942987    -0.14300
F2508       F  0.65876545  0.08176856  0.34412716    -0.15800
C2509       C  0.61666013  0.15980649  0.40018438     0.14300
C2510       C  0.59701687  0.16587497  0.39375472     0.01300
C2511       C  0.59326586  0.16876218  0.37276732     0.16200
C2512       C  0.60879266  0.16508346  0.35840121     0.25700
C2513       C  0.62803052  0.15796046  0.36482604    -0.40700
C2514       C  0.63198778  0.15564295  0.38577909     0.32700
C2515       C  0.58020067  0.16786133  0.40889409     0.01300
F2516       F  0.57440891  0.17457626  0.36618981    -0.13000
F2517       F  0.65051373  0.14873615  0.39220595    -0.13500
C2518       C  0.58129048  0.18265795  0.42445451     0.16200
C2519       C  0.56597253  0.18369201  0.43948488     0.25700
C2520       C  0.54945823  0.16972897  0.43935651    -0.40600
C2521       C  0.54835953  0.15496858  0.42368191     0.32600
C2522       C  0.56351933  0.15415548  0.40849812     0.14300
F2523       F  0.59730330  0.19601376  0.42514282    -0.13000
F2524       F  0.53250938  0.14141427  0.42295960    -0.13500
F2525       F  0.56772935  0.19782069  0.45463151    -0.15800
F2526       F  0.56224662  0.13958716  0.39371649    -0.14300
F2527       F  0.62062932  0.15686517  0.42035615    -0.14300
F2528       F  0.60463687  0.16709585  0.33813860    -0.15800
C2529       C  0.59008667  0.09371561  0.32544864     0.14300
C2530       C  0.59351026  0.07853515  0.31065737     0.01300
C2531       C  0.61141280  0.07947061  0.29861580     0.16200
C2532       C  0.62617745  0.09477306  0.30212545     0.25700
C2533       C  0.62326049  0.10922213  0.31782980    -0.40700
C2534       C  0.60480800  0.10881821  0.32905452     0.32700
C2535       C  0.57909094  0.06101238  0.30918951     0.01300
F2536       F  0.61514305  0.06490717  0.28430038    -0.13000
F2537       F  0.60102241  0.12289483  0.34379715    -0.13500
C2538       C  0.56867844  0.05637218  0.29089523     0.16200
C2539       C  0.55406654  0.04054396  0.29028759     0.25700
C2540       C  0.54957660  0.02918928  0.30805088    -0.40600
C2541       C  0.56063973  0.03353603  0.32614169     0.32600
C2542       C  0.57520079  0.04920055  0.32665266     0.14300
F2543       F  0.57209079  0.06766320  0.27384342    -0.13000
F2544       F  0.55745956  0.02262354  0.34349891    -0.13500
F2545       F  0.54385048  0.03686476  0.27252848    -0.15800
F2546       F  0.58553336  0.05290840  0.34436379    -0.14300
F2547       F  0.57260427  0.09360699  0.33682335    -0.14300
F2548       F  0.64385609  0.09465064  0.29108794    -0.15800
C2549       C  0.70535834  0.19196954  0.30721461     0.14300
C2550       C  0.70579379  0.19114916  0.28584530     0.01300
C2551       C  0.69445758  0.17610057  0.27556028     0.16200
C2552       C  0.68227259  0.16222382  0.28644976     0.25700
C2553       C  0.68071204  0.16355222  0.30807979    -0.40700
C2554       C  0.69314524  0.17826712  0.31822481     0.32700
C2555       C  0.71828242  0.20585310  0.27416118     0.01300
F2556       F  0.69548960  0.17464322  0.25483861    -0.13000
F2557       F  0.69349105  0.17941706  0.33898865    -0.13500
C2558       C  0.73922371  0.20247693  0.27110430     0.16200
C2559       C  0.75087286  0.21598760  0.25931836     0.25700
C2560       C  0.74169317  0.23299640  0.24952242    -0.40600
C2561       C  0.72071611  0.23696873  0.25427434     0.32600
C2562       C  0.70921703  0.22331421  0.26609042     0.14300
F2563       F  0.74835122  0.18583673  0.27929172    -0.13000
F2564       F  0.71127962  0.25448102  0.24880468    -0.13500
F2565       F  0.77111385  0.21185106  0.25668360    -0.15800
F2566       F  0.68915329  0.22735863  0.27001938    -0.14300
F2567       F  0.71671427  0.20616198  0.31742165    -0.14300
F2568       F  0.67317187  0.14711531  0.27553437    -0.15800
C2569       C  0.69297633  0.10122664  0.58320708     0.14300
C2570       C  0.68420680  0.08165111  0.58278294     0.01300
C2571       C  0.67050336  0.07568290  0.59827459     0.16200
C2572       C  0.66462671  0.08958137  0.61335212     0.25700
C2573       C  0.67255587  0.10952300  0.61319443    -0.40700
C2574       C  0.68718430  0.11512968  0.59836265     0.32700
C2575       C  0.68716227  0.06838152  0.56486832     0.01300
F2576       F  0.66223853  0.05662004  0.59826932    -0.13000
F2577       F  0.69462680  0.13449339  0.59760207    -0.13500
C2578       C  0.70610605  0.05907643  0.56103614     0.16200
C2579       C  0.70825077  0.04578275  0.54439739     0.25700
C2580       C  0.69139579  0.04168985  0.53137525    -0.40600
C2581       C  0.67271248  0.05185838  0.53485917     0.32600
C2582       C  0.67063701  0.06500396  0.55150508     0.14300
F2583       F  0.72228456  0.06236580  0.57377525    -0.13000
F2584       F  0.65636376  0.04909518  0.52220975    -0.13500
F2585       F  0.72657171  0.03639087  0.54155185    -0.15800
F2586       F  0.65240197  0.07447378  0.55466857    -0.14300
F2587       F  0.70604087  0.10726770  0.56816106    -0.14300
F2588       F  0.65079894  0.08375278  0.62780272    -0.15800
C2589       C  0.60486951  0.08678474  0.67722668     0.14300
C2590       C  0.58590681  0.08811019  0.66701339     0.01300
C2591       C  0.58258847  0.10413958  0.65325250     0.16200
C2592       C  0.59838879  0.11788001  0.64875626     0.25700
C2593       C  0.61772386  0.11591032  0.65806601    -0.40700
C2594       C  0.62070756  0.10067622  0.67280776     0.32700
C2595       C  0.57027423  0.07178201  0.66897445     0.01300
F2596       F  0.56417801  0.10606487  0.64368719    -0.13000
F2597       F  0.63932335  0.09843289  0.68187269    -0.13500
C2598       C  0.56012095  0.06820004  0.68757387     0.16200
C2599       C  0.54486096  0.05307904  0.68888979     0.25700
C2600       C  0.53958349  0.04118687  0.67156998    -0.40600
C2601       C  0.55015259  0.04473773  0.65302826     0.32600
C2602       C  0.56527055  0.05985934  0.65179889     0.14300
F2603       F  0.56466446  0.07966642  0.70433375    -0.13000
F2604       F  0.54606948  0.03351898  0.63597979    -0.13500
F2605       F  0.53510646  0.05035547  0.70705740    -0.15800
F2606       F  0.57524606  0.06277256  0.63376262    -0.14300
F2607       F  0.60843031  0.07133337  0.69049885    -0.14300
F2608       F  0.59492317  0.13290411  0.63496916    -0.15800
C2609       C  0.61314200  0.15197109  0.57072295     0.14300
C2610       C  0.59708391  0.16578242  0.57404872     0.01300
C2611       C  0.59635550  0.17686579  0.59249141     0.16200
C2612       C  0.61089203  0.17330232  0.60786191     0.25700
C2613       C  0.62618911  0.15853275  0.60495229    -0.40700
C2614       C  0.62756476  0.14836224  0.58604625     0.32700
C2615       C  0.58047066  0.16741609  0.55874048     0.01300
F2616       F  0.58089949  0.19022109  0.59605534    -0.13000
F2617       F  0.64268705  0.13462387  0.58253486    -0.13500
C2618       C  0.56849054  0.15018510  0.55396813     0.16200
C2619       C  0.55354116  0.15106138  0.53869194     0.25700
C2620       C  0.55021946  0.16929145  0.52781608    -0.40600
C2621       C  0.56192411  0.18673026  0.53307474     0.32600
C2622       C  0.57690937  0.18576353  0.54841921     0.14300
F2623       F  0.57122876  0.13245085  0.56425477    -0.13000
F2624       F  0.55925372  0.20463296  0.52310361    -0.13500
F2625       F  0.54220189  0.13403551  0.53478306    -0.15800
F2626       F  0.58835914  0.20259064  0.55280736    -0.14300
F2627       F  0.61451860  0.14159109  0.55275271    -0.14300
F2628       F  0.60917945  0.18322743  0.62605227    -0.15800
C2629       C  0.70358502  0.16654599  0.69161682     0.14300
C2630       C  0.70263419  0.18779964  0.69261220     0.01300
C2631       C  0.68820394  0.19817123  0.68077495     0.16200
C2632       C  0.67494005  0.18750475  0.66774508     0.25700
C2633       C  0.67641118  0.16605881  0.66569097    -0.40700
C2634       C  0.69047499  0.15575114  0.67852630     0.32700
C2635       C  0.71618487  0.19936730  0.70646950     0.01300
F2636       F  0.68652708  0.21874319  0.68236315    -0.13000
F2637       F  0.69151722  0.13507826  0.67849111    -0.13500
C2638       C  0.73167449  0.21177363  0.69842867     0.16200
C2639       C  0.74356739  0.22410124  0.71126260     0.25700
C2640       C  0.73953490  0.22509705  0.73272412    -0.40600
C2641       C  0.72483143  0.21106144  0.74061776     0.32600
C2642       C  0.71316482  0.19864069  0.72762316     0.14300
F2643       F  0.73555953  0.21165543  0.67799371    -0.13000
F2644       F  0.72097339  0.21001818  0.76098921    -0.13500
F2645       F  0.75959071  0.23397797  0.70236073    -0.15800
F2646       F  0.69841767  0.18631277  0.73566924    -0.14300
F2647       F  0.71734376  0.15626133  0.70322930    -0.14300
F2648       F  0.65997958  0.19836611  0.65853052    -0.15800
C2649       C  0.40188177  0.67928738  0.88370814     0.14300
C2650       C  0.40017555  0.67165117  0.90371518     0.01300
C2651       C  0.38285603  0.65993766  0.90912585     0.16200
C2652       C  0.36841211  0.65440379  0.89430877     0.25700
C2653       C  0.37094266  0.66076787  0.87399478    -0.40700
C2654       C  0.38725187  0.67391620  0.86890746     0.32700
C2655       C  0.41770671  0.67315032  0.91800922     0.01300
F2656       F  0.38063428  0.65285740  0.92851553    -0.13000
F2657       F  0.39001510  0.68000397  0.84924996    -0.13500
C2658       C  0.42487465  0.69202550  0.92533528     0.16200
C2659       C  0.44136700  0.69291276  0.93913431     0.25700
C2660       C  0.45101324  0.67485473  0.94573554    -0.40600
C2661       C  0.44394465  0.65601201  0.93782055     0.32600
C2662       C  0.42753119  0.65523487  0.92415850     0.14300
F2663       F  0.41560882  0.70953944  0.91947127    -0.13000
F2664       F  0.45274971  0.63813634  0.94330463    -0.13500
F2665       F  0.44762171  0.71142650  0.94618357    -0.15800
F2666       F  0.42127479  0.63684239  0.91673440    -0.14300
F2667       F  0.41857891  0.69045904  0.87810262    -0.14300
F2668       F  0.35249524  0.64197898  0.89953772    -0.15800
C2669       C  0.44501391  0.56906014  0.79658554     0.14300
C2670       C  0.43284937  0.57058026  0.81430811     0.01300
C2671       C  0.43598938  0.55690985  0.83043360     0.16200
C2672       C  0.45156263  0.54249724  0.82932955     0.25700
C2673       C  0.46441866  0.54137441  0.81199093    -0.40700
C2674       C  0.46069993  0.55451080  0.79539449     0.32700
C2675       C  0.41710202  0.58657693  0.81658992     0.01300
F2676       F  0.42390015  0.55755810  0.84738042    -0.13000
F2677       F  0.47269699  0.55384438  0.77840260    -0.13500
C2678       C  0.39968276  0.58677538  0.80392690     0.16200
C2679       C  0.38341367  0.60001025  0.80819208     0.25700
C2680       C  0.38448124  0.61342124  0.82508220    -0.40600
C2681       C  0.40253452  0.61398673  0.83694845     0.32600
C2682       C  0.41858821  0.60058448  0.83283536     0.14300
F2683       F  0.39789891  0.57330538  0.78819077    -0.13000
F2684       F  0.40467994  0.62744200  0.85265958    -0.13500
F2685       F  0.36616025  0.59872837  0.79657924    -0.15800
F2686       F  0.43547613  0.60092590  0.84505376    -0.14300
F2687       F  0.44217007  0.58211972  0.78078303    -0.14300
F2688       F  0.45395798  0.52955260  0.84531992    -0.15800
C2689       C  0.33592962  0.57444033  0.88877967     0.14300
C2690       C  0.31904018  0.57897883  0.90130796     0.01300
C2691       C  0.30733323  0.59640432  0.89753863     0.16200
C2692       C  0.31288911  0.60959071  0.88171811     0.25700
C2693       C  0.33018872  0.60537045  0.86949750    -0.40700
C2694       C  0.34144763  0.58752483  0.87291218     0.32700
C2695       C  0.31466223  0.56610776  0.91910872     0.01300
F2696       F  0.29116342  0.60109900  0.90978403    -0.13000
F2697       F  0.35786148  0.58283681  0.86098309    -0.13500
C2698       C  0.32787083  0.56692712  0.93601369     0.16200
C2699       C  0.32550139  0.55308150  0.95195542     0.25700
C2700       C  0.30988772  0.53813033  0.95114999    -0.40600
C2701       C  0.29593420  0.53809119  0.93469000     0.32600
C2702       C  0.29835466  0.55204012  0.91871550     0.14300
F2703       F  0.34340690  0.58084268  0.93677329    -0.13000
F2704       F  0.28077804  0.52382371  0.93343308    -0.13500
F2705       F  0.33868586  0.55411771  0.96805010    -0.15800
F2706       F  0.28545441  0.55119627  0.90240053    -0.14300
F2707       F  0.34729121  0.55750864  0.89223811    -0.14300
F2708       F  0.30213757  0.62706577  0.87915415    -0.15800
C2709       C  0.28854519  0.67557258  0.80895386     0.14300
C2710       C  0.29636842  0.68501888  0.79146706     0.01300
C2711       C  0.31695154  0.68223005  0.78597831     0.16200
C2712       C  0.32960351  0.66977230  0.79768857     0.25700
C2713       C  0.32168706  0.65927637  0.81487956    -0.40700
C2714       C  0.30116246  0.66337376  0.82091710     0.32700
C2715       C  0.28360844  0.69938321  0.78004234     0.01300
F2716       F  0.32496018  0.69212390  0.76955246    -0.13000
F2717       F  0.29351522  0.65699664  0.83914192    -0.13500
C2718       C  0.28823257  0.72016551  0.78073953     0.16200
C2719       C  0.27675194  0.73389037  0.76938022     0.25700
C2720       C  0.26040883  0.72715244  0.75652035    -0.40600
C2721       C  0.25468822  0.70617235  0.75780224     0.32600
C2722       C  0.26653919  0.69250643  0.76899879     0.14300
F2723       F  0.30395168  0.72720225  0.79254201    -0.13000
F2724       F  0.23709071  0.69866163  0.74953268    -0.13500
F2725       F  0.28231812  0.75382327  0.77032287    -0.15800
F2726       F  0.26122499  0.67245132  0.76919437    -0.14300
F2727       F  0.26896520  0.67918394  0.81514209    -0.14300
F2728       F  0.34986375  0.66920006  0.79283750    -0.15800
C2729       C  0.69350959  0.61540164  0.90886186     0.14300
C2730       C  0.69717900  0.59578860  0.90093433     0.01300
C2731       C  0.69473270  0.59223405  0.87981740     0.16200
C2732       C  0.68731198  0.60760296  0.86712450     0.25700
C2733       C  0.68219070  0.62663831  0.87538478    -0.40700
C2734       C  0.68612147  0.63077855  0.89609243     0.32700
C2735       C  0.70094555  0.57851656  0.91492253     0.01300
F2736       F  0.69878003  0.57361543  0.87167265    -0.13000
F2737       F  0.68219435  0.64949975  0.90403875    -0.13500
C2738       C  0.68679697  0.56227949  0.91542150     0.16200
C2739       C  0.68915853  0.54645565  0.92937061     0.25700
C2740       C  0.70573340  0.54650915  0.94323285    -0.40600
C2741       C  0.72017517  0.56256557  0.94249429     0.32600
C2742       C  0.71774115  0.57851109  0.92846923     0.14300
F2743       F  0.67018016  0.56210743  0.90283351    -0.13000
F2744       F  0.73612405  0.56327851  0.95587459    -0.13500
F2745       F  0.67509029  0.53106563  0.92932164    -0.15800
F2746       F  0.73165648  0.59401634  0.92821222    -0.14300
F2747       F  0.69582328  0.61928845  0.92916230    -0.14300
F2748       F  0.68438958  0.60370479  0.84690081    -0.15800
C2749       C  0.59231058  0.68519453  0.88707639     0.14300
C2750       C  0.59156691  0.67526353  0.90603088     0.01300
C2751       C  0.60797570  0.66296940  0.91211468     0.16200
C2752       C  0.62476430  0.66014465  0.89915881     0.25700
C2753       C  0.62537965  0.66953614  0.87984094    -0.40700
C2754       C  0.60911058  0.68233859  0.87400597     0.32700
C2755       C  0.57318496  0.67654815  0.91906217     0.01300
F2756       F  0.60748486  0.65335121  0.93048576    -0.13000
F2757       F  0.60883505  0.69103974  0.85518729    -0.13500
C2758       C  0.55967486  0.65986896  0.92013270     0.16200
C2759       C  0.54313672  0.66013114  0.93371198     0.25700
C2760       C  0.53990994  0.67710917  0.94657910    -0.40600
C2761       C  0.55319313  0.69409901  0.94499206     0.32600
C2762       C  0.56972851  0.69377745  0.93130189     0.14300
F2763       F  0.56270753  0.64318676  0.90816146    -0.13000
F2764       F  0.55075501  0.71065531  0.95726597    -0.13500
F2765       F  0.53032572  0.64371362  0.93425514    -0.15800
F2766       F  0.58282274  0.70995070  0.93051106    -0.14300
F2767       F  0.57633471  0.69686277  0.88088111    -0.14300
F2768       F  0.64028902  0.64799068  0.90545254    -0.15800
C2769       C  0.59950704  0.61305466  0.80921951     0.14300
C2770       C  0.59899001  0.59386196  0.81858665     0.01300
C2771       C  0.61385876  0.58899263  0.83325230     0.16200
C2772       C  0.62874038  0.60331829  0.83901883     0.25700
C2773       C  0.62902801  0.62286962  0.83019488    -0.40700
C2774       C  0.61443662  0.62748408  0.81494652     0.32700
C2775       C  0.58190035  0.57945965  0.81481868     0.01300
F2776       F  0.61353038  0.57047435  0.84247021    -0.13000
F2777       F  0.61382420  0.64632595  0.80645386    -0.13500
C2778       C  0.58325812  0.56450742  0.79946099     0.16200
C2779       C  0.56824388  0.54912698  0.79799660     0.25700
C2780       C  0.55188873  0.54840592  0.81211812    -0.40600
C2781       C  0.55021309  0.56395491  0.82693096     0.32600
C2782       C  0.56506633  0.57935951  0.82820937     0.14300
F2783       F  0.59954803  0.56435577  0.78647226    -0.13000
F2784       F  0.53425401  0.56414549  0.84033410    -0.13500
F2785       F  0.57034399  0.53433644  0.78357098    -0.15800
F2786       F  0.56343489  0.59384884  0.84301432    -0.14300
F2787       F  0.58506518  0.61807080  0.79515026    -0.14300
F2788       F  0.64272597  0.59800179  0.85338762    -0.15800
C2789       C  0.68437195  0.70194972  0.79241033     0.14300
C2790       C  0.70275072  0.71013912  0.80018619     0.01300
C2791       C  0.70762778  0.70718207  0.82084814     0.16200
C2792       C  0.69514427  0.69487467  0.83313016     0.25700
C2793       C  0.67803953  0.68437679  0.82470444    -0.40700
C2794       C  0.67188503  0.68956834  0.80462842     0.32700
C2795       C  0.71699851  0.72133916  0.78658243     0.01300
F2796       F  0.72458034  0.71616006  0.82910751    -0.13000
F2797       F  0.65347987  0.68355583  0.79689454    -0.13500
C2798       C  0.71061575  0.73892014  0.77643145     0.16200
C2799       C  0.72355622  0.74868961  0.76242443     0.25700
C2800       C  0.74330090  0.74064788  0.75763842    -0.40600
C2801       C  0.75009187  0.72394871  0.76963315     0.32600
C2802       C  0.73696194  0.71418121  0.78341962     0.14300
F2803       F  0.69186684  0.74697751  0.78047946    -0.13000
F2804       F  0.76922584  0.71621563  0.76717203    -0.13500
F2805       F  0.71683267  0.76663901  0.75481390    -0.15800
F2806       F  0.74356322  0.69720250  0.79319658    -0.14300
F2807       F  0.67874168  0.70551722  0.77273762    -0.14300
F2808       F  0.69999057  0.69309490  0.85326108    -0.15800
C2809       C  0.68957460  0.39393106  0.90965062     0.14300
C2810       C  0.70186137  0.40926584  0.90087854     0.01300
C2811       C  0.70660442  0.40840016  0.87994226     0.16200
C2812       C  0.69860325  0.39269058  0.86776184     0.25700
C2813       C  0.68548974  0.37791851  0.87635706    -0.40700
C2814       C  0.68125474  0.37844767  0.89740682     0.32700
C2815       C  0.70710269  0.42749575  0.91305695     0.01300
F2816       F  0.71824116  0.42324954  0.87119464    -0.13000
F2817       F  0.66863809  0.36427850  0.90596453    -0.13500
C2818       C  0.72128138  0.42644974  0.92920968     0.16200
C2819       C  0.72351125  0.44288506  0.94278261     0.25700
C2820       C  0.71122257  0.46027774  0.94052672    -0.40600
C2821       C  0.69784894  0.46166799  0.92371906     0.32600
C2822       C  0.69592314  0.44543889  0.90998801     0.14300
F2823       F  0.73225253  0.40920452  0.93230319    -0.13000
F2824       F  0.68616432  0.47852083  0.92098959    -0.13500
F2825       F  0.73647536  0.44119624  0.95896191    -0.15800
F2826       F  0.68216406  0.44670187  0.89442039    -0.14300
F2827       F  0.68465955  0.39469142  0.92984422    -0.14300
F2828       F  0.70248779  0.39268526  0.84733697    -0.15800
C2829       C  0.60196207  0.39544684  0.81492025     0.14300
C2830       C  0.60399137  0.41486680  0.82389862     0.01300
C2831       C  0.62109949  0.41910661  0.83638736     0.16200
C2832       C  0.63551813  0.40397595  0.84045323     0.25700
C2833       C  0.63320437  0.38439909  0.83193684    -0.40700
C2834       C  0.61650639  0.38033072  0.81885795     0.32700
C2835       C  0.58765457  0.43028898  0.82143918     0.01300
F2836       F  0.62367077  0.43787394  0.84488853    -0.13000
F2837       F  0.61356233  0.36137457  0.81094038    -0.13500
C2838       C  0.57762067  0.43799509  0.83879739     0.16200
C2839       C  0.56237785  0.45270926  0.83685828     0.25700
C2840       C  0.55667119  0.46009056  0.81738543    -0.40600
C2841       C  0.56654355  0.45202316  0.79992857     0.32600
C2842       C  0.58191326  0.43729104  0.80197690     0.14300
F2843       F  0.58234018  0.43095214  0.85774099    -0.13000
F2844       F  0.56148109  0.45840140  0.78085241    -0.13500
F2845       F  0.55307774  0.45945106  0.85420003    -0.15800
F2846       F  0.59145150  0.43010133  0.78495669    -0.14300
F2847       F  0.58531778  0.39079390  0.80323615    -0.14300
F2848       F  0.65170096  0.40842848  0.85284440    -0.15800
C2849       C  0.61578338  0.31373184  0.90589037     0.14300
C2850       C  0.59823232  0.32601179  0.90765485     0.01300
C2851       C  0.59497514  0.34153623  0.89329125     0.16200
C2852       C  0.60970180  0.34575970  0.87838095     0.25700
C2853       C  0.62792199  0.33441972  0.87741785    -0.40700
C2854       C  0.63052132  0.31786001  0.89077816     0.32700
C2855       C  0.58403819  0.32398793  0.92525269     0.01300
F2856       F  0.57764567  0.35294867  0.89402733    -0.13000
F2857       F  0.64783059  0.30644285  0.88997648    -0.13500
C2858       C  0.58068518  0.34090532  0.93802290     0.16200
C2859       C  0.56613818  0.34001186  0.95366765     0.25700
C2860       C  0.55467606  0.32203131  0.95706494    -0.40600
C2861       C  0.55875850  0.30474004  0.94483148     0.32600
C2862       C  0.57327458  0.30576102  0.92900560     0.14300
F2863       F  0.59152728  0.35844651  0.93525446    -0.13000
F2864       F  0.54826149  0.28702434  0.94767419    -0.13500
F2865       F  0.56336622  0.35685295  0.96547572    -0.15800
F2866       F  0.57624694  0.28919155  0.91687647    -0.14300
F2867       F  0.61919655  0.29850615  0.91946255    -0.14300
F2868       F  0.60613280  0.36104161  0.86491977    -0.15800
C2869       C  0.70159977  0.29193730  0.82007446     0.14300
C2870       C  0.70511870  0.29533416  0.79924656     0.01300
C2871       C  0.69820053  0.31337112  0.79024911     0.16200
C2872       C  0.68712932  0.32757027  0.80173730     0.25700
C2873       C  0.68200600  0.32355498  0.82242429    -0.40700
C2874       C  0.69044518  0.30597378  0.83161343     0.32700
C2875       C  0.71645553  0.28026603  0.78695750     0.01300
F2876       F  0.70284559  0.31756990  0.77042830    -0.13000
F2877       F  0.68823742  0.30247359  0.85197566    -0.13500
C2878       C  0.70649406  0.26959634  0.77124996     0.16200
C2879       C  0.71721863  0.25576574  0.75901487     0.25700
C2880       C  0.73846081  0.25187746  0.76249907    -0.40600
C2881       C  0.74822745  0.26323478  0.77839673     0.32600
C2882       C  0.73732566  0.27697913  0.79050888     0.14300
F2883       F  0.68628639  0.27297173  0.76741643    -0.13000
F2884       F  0.76857944  0.26113350  0.78225080    -0.13500
F2885       F  0.70677917  0.24770102  0.74293609    -0.15800
F2886       F  0.74736145  0.28763089  0.80535756    -0.14300
F2887       F  0.70893332  0.27492467  0.82923823    -0.14300
F2888       F  0.68298762  0.34566624  0.79277353    -0.15800
C2889       C  0.42976228  0.39099809  0.83562553     0.14300
C2890       C  0.42593481  0.40664108  0.82152131     0.01300
C2891       C  0.40691510  0.40716074  0.81134195     0.16200
C2892       C  0.39164535  0.39269674  0.81585077     0.25700
C2893       C  0.39519686  0.37765035  0.83067060    -0.40700
C2894       C  0.41446860  0.37671838  0.84028032     0.32700
C2895       C  0.44093651  0.42354091  0.81926836     0.01300
F2896       F  0.40275492  0.42231407  0.79789942    -0.13000
F2897       F  0.41846696  0.36202467  0.85427158    -0.13500
C2898       C  0.45047825  0.42771394  0.80044148     0.16200
C2899       C  0.46481879  0.44370204  0.79882676     0.25700
C2900       C  0.46979330  0.45581765  0.81607569    -0.40600
C2901       C  0.45985597  0.45163086  0.83481884     0.32600
C2902       C  0.44565864  0.43570247  0.83634280     0.14300
F2903       F  0.44621995  0.41604373  0.78374631    -0.13000
F2904       F  0.46359839  0.46307945  0.85178779    -0.13500
F2905       F  0.47401297  0.44704636  0.78047271    -0.15800
F2906       F  0.43621195  0.43230236  0.85457039    -0.14300
F2907       F  0.44822417  0.38986795  0.84523317    -0.14300
F2908       F  0.37300952  0.39407901  0.80663698    -0.15800
C2909       C  0.31629344  0.38723141  0.90120438     0.14300
C2910       C  0.32409213  0.40725896  0.90123684     0.01300
C2911       C  0.33774889  0.41336777  0.88574663     0.16200
C2912       C  0.34490059  0.39927305  0.87146498     0.25700
C2913       C  0.33824224  0.37891852  0.87222301    -0.40700
C2914       C  0.32329163  0.37310829  0.88666978     0.32700
C2915       C  0.32038173  0.42117583  0.91864363     0.01300
F2916       F  0.34487774  0.43285729  0.88508198    -0.13000
F2917       F  0.31662442  0.35348242  0.88763189    -0.13500
C2918       C  0.33715213  0.42756498  0.93058071     0.16200
C2919       C  0.33464983  0.44212731  0.94592105     0.25700
C2920       C  0.31517241  0.45062177  0.94979119    -0.40600
C2921       C  0.29813945  0.44350294  0.93834177     0.32600
C2922       C  0.30076361  0.42886895  0.92288056     0.14300
F2923       F  0.35613377  0.41971842  0.92722680    -0.13000
F2924       F  0.27903566  0.45102678  0.94167600    -0.13500
F2925       F  0.35143817  0.44784302  0.95692979    -0.15800
F2926       F  0.28430565  0.42272879  0.91161825    -0.14300
F2927       F  0.30303377  0.38103728  0.91601681    -0.14300
F2928       F  0.35879367  0.40538174  0.85720040    -0.15800
C2929       C  0.40074312  0.33591713  0.91567000     0.14300
C2930       C  0.41831186  0.32431665  0.91134049     0.01300
C2931       C  0.42044928  0.31532379  0.89188725     0.16200
C2932       C  0.40580942  0.31890942  0.87663784     0.25700
C2933       C  0.38899734  0.33167803  0.88063593    -0.40700
C2934       C  0.38629855  0.33971086  0.90039350     0.32700
C2935       C  0.43512994  0.32330883  0.92654212     0.01300
F2936       F  0.43733382  0.30415562  0.88727341    -0.13000
F2937       F  0.36983009  0.35155870  0.90479898    -0.13500
C2938       C  0.44218547  0.30456828  0.93396655     0.16200
C2939       C  0.45779529  0.30399495  0.94870759     0.25700
C2940       C  0.46662045  0.32223303  0.95633579    -0.40600
C2941       C  0.45963275  0.34097425  0.94850559     0.32600
C2942       C  0.44417177  0.34144579  0.93374148     0.14300
F2943       F  0.43364450  0.28682151  0.92727660    -0.13000
F2944       F  0.46765587  0.35900464  0.95507060    -0.13500
F2945       F  0.46404829  0.28554869  0.95559106    -0.15800
F2946       F  0.43812375  0.35974558  0.92626652    -0.14300
F2947       F  0.39791170  0.34406619  0.93459763    -0.14300
F2948       F  0.40884253  0.31112651  0.85759663    -0.15800
C2949       C  0.32323403  0.31665293  0.78699979     0.14300
C2950       C  0.31576366  0.29774729  0.79386378     0.01300
C2951       C  0.31984672  0.29178511  0.81404249     0.16200
C2952       C  0.33171090  0.30413010  0.82694286     0.25700
C2953       C  0.34043196  0.32259760  0.81978875    -0.40700
C2954       C  0.33485085  0.32919418  0.79995636     0.32700
C2955       C  0.30237132  0.28495605  0.78060337     0.01300
F2956       F  0.31142472  0.27440916  0.82167233    -0.13000
F2957       F  0.33953499  0.34823519  0.79330096    -0.13500
C2958       C  0.30647799  0.26420291  0.77762847     0.16200
C2959       C  0.29322031  0.25198008  0.76595700     0.25700
C2960       C  0.27617244  0.26041823  0.75551287    -0.40600
C2961       C  0.27167021  0.28129531  0.75972465     0.32600
C2962       C  0.28466215  0.29322588  0.77188323     0.14300
F2963       F  0.32351677  0.25571655  0.78592638    -0.13000
F2964       F  0.25399202  0.29026382  0.75360746    -0.13500
F2965       F  0.29760458  0.23186388  0.76426584    -0.15800
F2966       F  0.27928803  0.31280421  0.77596557    -0.14300
F2967       F  0.31898396  0.32321187  0.76777357    -0.14300
F2968       F  0.33345858  0.29841514  0.84679919    -0.15800
C2969       C  0.39401755  0.41168512  0.17581582     0.14300
C2970       C  0.41360992  0.40985192  0.16696682     0.01300
C2971       C  0.41853559  0.39227809  0.15577421     0.16200
C2972       C  0.40369724  0.37728011  0.15232591     0.25700
C2973       C  0.38376118  0.37955175  0.16016176    -0.40700
C2974       C  0.37911955  0.39651829  0.17245975     0.32700
C2975       C  0.42838407  0.42693188  0.16746615     0.01300
F2976       F  0.43756509  0.39004570  0.14754945    -0.13000
F2977       F  0.35985063  0.39903596  0.17999780    -0.13500
C2978       C  0.43877879  0.43217175  0.18551929     0.16200
C2979       C  0.45395862  0.44738013  0.18530599     0.25700
C2980       C  0.45889423  0.45764670  0.16695241    -0.40600
C2981       C  0.44796224  0.45254057  0.14898003     0.32600
C2982       C  0.43291303  0.43731675  0.14928460     0.14300
F2983       F  0.43466270  0.42211493  0.20319325    -0.13000
F2984       F  0.45171205  0.46224445  0.13102462    -0.13500
F2985       F  0.46409966  0.45164663  0.20298333    -0.15800
F2986       F  0.42274284  0.43257710  0.13172390    -0.14300
F2987       F  0.38900666  0.42865777  0.18662015    -0.14300
F2988       F  0.40866365  0.36076092  0.14084808    -0.15800
C2989       C  0.41511226  0.31683918  0.10470547     0.14300
C2990       C  0.41501416  0.32526206  0.08498071     0.01300
C2991       C  0.39805089  0.33666479  0.07851125     0.16200
C2992       C  0.38179548  0.34042933  0.09189569     0.25700
C2993       C  0.38220927  0.33274405  0.11191465    -0.40700
C2994       C  0.39875300  0.32051723  0.11811894     0.32700
C2995       C  0.43319262  0.32371883  0.07159831     0.01300
F2996       F  0.39754991  0.34461964  0.05935726    -0.13000
F2997       F  0.39982690  0.31346691  0.13760215    -0.13500
C2998       C  0.43871488  0.30508875  0.06264620     0.16200
C2999       C  0.45500137  0.30422771  0.04864875     0.25700
C3000       C  0.46606418  0.32206625  0.04345780    -0.40600
C3001       C  0.46084102  0.34057782  0.05319061     0.32600
C3002       C  0.44455791  0.34134430  0.06705235     0.14300
F3003       F  0.42785866  0.28788222  0.06692172    -0.13000
F3004       F  0.47135805  0.35808429  0.04928814    -0.13500
F3005       F  0.45945574  0.28604530  0.03976872    -0.15800
F3006       F  0.43972984  0.35941712  0.07599726    -0.14300
F3007       F  0.43157240  0.30610115  0.11133407    -0.14300
F3008       F  0.36580787  0.35195487  0.08544630    -0.15800
C3009       C  0.33063332  0.41433040  0.10182053     0.14300
C3010       C  0.31721052  0.40833440  0.08606762     0.01300
C3011       C  0.30899904  0.38848789  0.08590925     0.16200
C3012       C  0.31529010  0.37437688  0.10062931     0.25700
C3013       C  0.32992169  0.38004691  0.11547042    -0.40700
C3014       C  0.33703642  0.40026505  0.11634168     0.32700
C3015       C  0.31447749  0.42193050  0.06841723     0.01300
F3016       F  0.29608177  0.38242240  0.07071298    -0.13000
F3017       F  0.35064759  0.40627043  0.13094882    -0.13500
C3018       C  0.33174005  0.42706715  0.05665148     0.16200
C3019       C  0.33017953  0.44106596  0.04083223     0.25700
C3020       C  0.31117075  0.45023346  0.03631317    -0.40600
C3021       C  0.29365325  0.44451808  0.04772353     0.32600
C3022       C  0.29532971  0.43041087  0.06368527     0.14300
F3023       F  0.35029617  0.41858958  0.06067444    -0.13000
F3024       F  0.27509536  0.45307252  0.04398253    -0.13500
F3025       F  0.34745468  0.44566864  0.03007281    -0.15800
F3026       F  0.27847530  0.42559094  0.07496844    -0.14300
F3027       F  0.33834121  0.43361324  0.10246967    -0.14300
F3028       F  0.30828261  0.35486966  0.09948101    -0.15800
C3029       C  0.30222504  0.27566515  0.22294651     0.14300
C3030       C  0.29218802  0.28877036  0.20953008     0.01300
C3031       C  0.27079291  0.28968935  0.20953131     0.16200
C3032       C  0.25937618  0.27664518  0.22197127     0.25700
C3033       C  0.26912875  0.26193786  0.23458740    -0.40700
C3034       C  0.29096602  0.26291132  0.23588203     0.32700
C3035       C  0.30414087  0.30143681  0.19538700     0.01300
F3036       F  0.26091690  0.30287776  0.19699893    -0.13000
F3037       F  0.30176252  0.25252447  0.25013859    -0.13500
C3038       C  0.31089116  0.29321448  0.17681587     0.16200
C3039       C  0.32253111  0.30503777  0.16336247     0.25700
C3040       C  0.32852439  0.32513388  0.16879226    -0.40600
C3041       C  0.31999531  0.33373188  0.18677783     0.32600
C3042       C  0.30825187  0.32184699  0.20009428     0.14300
F3043       F  0.30571419  0.27382018  0.17148565    -0.13000
F3044       F  0.32253666  0.35380192  0.19131702    -0.13500
F3045       F  0.32660011  0.29705617  0.14463196    -0.15800
F3046       F  0.30077012  0.33027256  0.21756841    -0.14300
F3047       F  0.32308263  0.27543452  0.22369396    -0.14300
F3048       F  0.23861886  0.27768604  0.22071723    -0.15800
C3049       C  0.58361826  0.65945019  0.09614391     0.14300
C3050       C  0.58659104  0.67103439  0.07836422     0.01300
C3051       C  0.60602739  0.67955742  0.07431271     0.16200
C3052       C  0.62248707  0.67601805  0.08762756     0.25700
C3053       C  0.61966121  0.66379169  0.10500940    -0.40700
C3054       C  0.60006178  0.65580444  0.10935306     0.32700
C3055       C  0.57004841  0.67227388  0.06298754     0.01300
F3056       F  0.60925071  0.69042463  0.05694912    -0.13000
F3057       F  0.59692296  0.64423464  0.12626440    -0.13500
C3058       C  0.55820500  0.68993340  0.06091175     0.16200
C3059       C  0.54266782  0.69083116  0.04606521     0.25700
C3060       C  0.53881308  0.67401796  0.03303910    -0.40600
C3061       C  0.55080720  0.65632149  0.03535910     0.32600
C3062       C  0.56620401  0.65550234  0.05019506     0.14300
F3063       F  0.56156555  0.70618939  0.07341607    -0.13000
F3064       F  0.54800459  0.63984863  0.02299991    -0.13500
F3065       F  0.53122708  0.70800270  0.04471050    -0.15800
F3066       F  0.57763598  0.63834716  0.05192537    -0.14300
F3067       F  0.56490220  0.65120337  0.10035933    -0.14300
F3068       F  0.64140152  0.68352883  0.08297229    -0.15800
C3069       C  0.70077851  0.59461061  0.09199907     0.14300
C3070       C  0.69079891  0.59109700  0.07329066     0.01300
C3071       C  0.67391116  0.60308391  0.06781075     0.16200
C3072       C  0.66660040  0.61801719  0.08116872     0.25700
C3073       C  0.67601928  0.62109447  0.10028869    -0.40700
C3074       C  0.69342057  0.60951031  0.10547531     0.32700
C3075       C  0.69665529  0.57387912  0.06006300     0.01300
F3076       F  0.66424805  0.59996860  0.04963360    -0.13000
F3077       F  0.70258504  0.61179072  0.12402088    -0.13500
C3078       C  0.68417459  0.55639073  0.05966387     0.16200
C3079       C  0.68762722  0.54111407  0.04519387     0.25700
C3080       C  0.70370097  0.54307819  0.03091046    -0.40600
C3081       C  0.71697738  0.56007802  0.03211919     0.32600
C3082       C  0.71339042  0.57546217  0.04659664     0.14300
F3083       F  0.66824696  0.55443368  0.07297073    -0.13000
F3084       F  0.73261548  0.56239384  0.01854144    -0.13500
F3085       F  0.67509882  0.52447372  0.04500432    -0.15800
F3086       F  0.72560094  0.59231946  0.04684981    -0.14300
F3087       F  0.71703659  0.58300857  0.09756123    -0.14300
F3088       F  0.65028190  0.62944209  0.07541157    -0.15800
C3089       C  0.61447925  0.58123071  0.14703460     0.14300
C3090       C  0.59818744  0.58622710  0.16018836     0.01300
C3091       C  0.59812612  0.60529763  0.17004877     0.16200
C3092       C  0.61344431  0.61972081  0.16566454     0.25700
C3093       C  0.62888630  0.61519061  0.15131028    -0.40700
C3094       C  0.62969802  0.59561467  0.14260398     0.32700
C3095       C  0.58035634  0.57229691  0.16183766     0.01300
F3096       F  0.58247166  0.61044286  0.18276609    -0.13000
F3097       F  0.64488744  0.59065096  0.12925691    -0.13500
C3098       C  0.57507036  0.56324488  0.18053464     0.16200
C3099       C  0.55861634  0.54942589  0.18158814     0.25700
C3100       C  0.54710853  0.54449734  0.16388566    -0.40600
C3101       C  0.55227525  0.55407373  0.14526640     0.32600
C3102       C  0.56869845  0.56781019  0.14430828     0.14300
F3103       F  0.58623514  0.56733126  0.19763643    -0.13000
F3104       F  0.54150306  0.55020639  0.12786472    -0.13500
F3105       F  0.55439709  0.54049432  0.19983950    -0.15800
F3106       F  0.57323334  0.57685165  0.12617125    -0.14300
F3107       F  0.61515749  0.56264195  0.13785258    -0.14300
F3108       F  0.61220740  0.63861190  0.17411586    -0.15800
C3109       C  0.68930997  0.70496929  0.17444036     0.14300
C3110       C  0.70539800  0.69474771  0.18420908     0.01300
C3111       C  0.70833557  0.67400283  0.18031503     0.16200
C3112       C  0.69533744  0.66355984  0.16690249     0.25700
C3113       C  0.67914906  0.67365822  0.15665288    -0.40700
C3114       C  0.67619572  0.69462213  0.16095076     0.32700
C3115       C  0.71845016  0.70551454  0.19927709     0.01300
F3116       F  0.72340986  0.66363045  0.19008261    -0.13000
F3117       F  0.66027486  0.70527689  0.15325045    -0.13500
C3118       C  0.70952248  0.71448178  0.21655238     0.16200
C3119       C  0.72151828  0.72532076  0.23058209     0.25700
C3120       C  0.74300529  0.72799676  0.22736696    -0.40600
C3121       C  0.75198871  0.71686467  0.21098285     0.32600
C3122       C  0.73980506  0.70636926  0.19681738     0.14300
F3123       F  0.68906600  0.71228171  0.22014872    -0.13000
F3124       F  0.77259364  0.71728315  0.20779993    -0.13500
F3125       F  0.71187275  0.73210249  0.24768211    -0.15800
F3126       F  0.74885689  0.69753616  0.18031160    -0.14300
F3127       F  0.68614138  0.72509209  0.17815923    -0.14300
F3128       F  0.69838703  0.64325291  0.16425441    -0.15800
C3129       C  0.68869685  0.44178717  0.05594552     0.14300
C3130       C  0.70563792  0.42955580  0.06051695     0.01300
C3131       C  0.72367181  0.43144156  0.04882050     0.16200
C3132       C  0.72483884  0.44584339  0.03298228     0.25700
C3133       C  0.70783049  0.45829234  0.02852999    -0.40700
C3134       C  0.68973481  0.45597779  0.04020085     0.32700
C3135       C  0.70395196  0.41516026  0.07776939     0.01300
F3136       F  0.74016529  0.41957777  0.05293788    -0.13000
F3137       F  0.67305584  0.46783348  0.03679542    -0.13500
C3138       C  0.70178514  0.39414335  0.07410192     0.16200
C3139       C  0.69546262  0.38117067  0.08991119     0.25700
C3140       C  0.69107854  0.38915503  0.10938812    -0.40600
C3141       C  0.69468541  0.40985701  0.11341845     0.32600
C3142       C  0.70109288  0.42280070  0.09769686     0.14300
F3143       F  0.70433391  0.38647213  0.05494349    -0.13000
F3144       F  0.69108096  0.41767561  0.13234229    -0.13500
F3145       F  0.69262968  0.36101085  0.08599412    -0.15800
F3146       F  0.70337447  0.44303613  0.10158294    -0.14300
F3147       F  0.67099203  0.43993753  0.06683060    -0.14300
F3148       F  0.74243137  0.44740998  0.02190395    -0.15800
C3149       C  0.56916711  0.43545423  0.14519718     0.14300
C3150       C  0.58244002  0.43345014  0.16197702     0.01300
C3151       C  0.57820224  0.44407713  0.18015507     0.16200
C3152       C  0.56123701  0.45707137  0.18133639     0.25700
C3153       C  0.54815217  0.45959225  0.16430608    -0.40700
C3154       C  0.55218556  0.44833947  0.14631556     0.32700
C3155       C  0.60102150  0.42071870  0.16008347     0.01300
F3156       F  0.59092654  0.44241688  0.19652388    -0.13000
F3157       F  0.53973482  0.44975718  0.12971110    -0.13500
C3158       C  0.61654533  0.42621453  0.14620308     0.16200
C3159       C  0.63337070  0.41346395  0.14299403     0.25700
C3160       C  0.63493734  0.39486882  0.15352943    -0.40600
C3161       C  0.61958300  0.38965314  0.16788377     0.32600
C3162       C  0.60284194  0.40256688  0.17121004     0.14300
F3163       F  0.61526141  0.44391213  0.13558009    -0.13000
F3164       F  0.62006316  0.37152250  0.17781345    -0.13500
F3165       F  0.64808072  0.41933161  0.12948655    -0.15800
F3166       F  0.58789520  0.39689201  0.18457470    -0.14300
F3167       F  0.57272196  0.42489079  0.12764268    -0.14300
F3168       F  0.55813534  0.46773169  0.19890908    -0.15800
C3169       C  0.60584419  0.32350991  0.10335706     0.14300
C3170       C  0.60518643  0.33068531  0.08320120     0.01300
C3171       C  0.62061016  0.34390259  0.07611077     0.16200
C3172       C  0.63619537  0.35048857  0.08928514     0.25700
C3173       C  0.63665209  0.34377856  0.10970565    -0.40700
C3174       C  0.62149194  0.32995578  0.11654453     0.32700
C3175       C  0.58726589  0.32628502  0.07021338     0.01300
F3176       F  0.62002853  0.35111955  0.05666236    -0.13000
F3177       F  0.62107587  0.32361819  0.13630174    -0.13500
C3178       C  0.56881563  0.33660887  0.07390584     0.16200
C3179       C  0.55237781  0.33446254  0.06036072     0.25700
C3180       C  0.55410529  0.32168749  0.04316263    -0.40600
C3181       C  0.57224920  0.31060908  0.03997982     0.32600
C3182       C  0.58886848  0.31308645  0.05334869     0.14300
F3183       F  0.56708634  0.34943823  0.09017219    -0.13000
F3184       F  0.57429091  0.29838754  0.02328971    -0.13500
F3185       F  0.53484640  0.34504232  0.06387008    -0.15800
F3186       F  0.60668513  0.30308978  0.04957870    -0.14300
F3187       F  0.59092792  0.31078146  0.11040856    -0.14300
F3188       F  0.65065368  0.36360658  0.08208689    -0.15800
C3189       C  0.71582142  0.27246159  0.20019946     0.14300
C3190       C  0.72063572  0.29320827  0.20192142     0.01300
C3191       C  0.73714718  0.29934200  0.21419820     0.16200
C3192       C  0.74862066  0.28503570  0.22495166     0.25700
C3193       C  0.74323851  0.26392772  0.22447263    -0.40700
C3194       C  0.72711020  0.25801694  0.21098471     0.32700
C3195       C  0.70931077  0.30845753  0.18990497     0.01300
F3196       F  0.74285907  0.31928404  0.21498399    -0.13000
F3197       F  0.72180777  0.23811804  0.20861311    -0.13500
C3198       C  0.69887818  0.32435395  0.19971820     0.16200
C3199       C  0.68860775  0.33915168  0.18833225     0.25700
C3200       C  0.68827377  0.33810506  0.16664550    -0.40600
C3201       C  0.69964166  0.32239343  0.15704619     0.32600
C3202       C  0.70978372  0.30769676  0.16851710     0.14300
F3203       F  0.69858931  0.32551992  0.22048188    -0.13000
F3204       F  0.70082364  0.32113431  0.13631260    -0.13500
F3205       F  0.67986606  0.35455153  0.19894895    -0.15800
F3206       F  0.72042885  0.29285340  0.15868204    -0.14300
F3207       F  0.70001522  0.26615894  0.18811345    -0.14300
F3208       F  0.76581218  0.29215416  0.23435086    -0.15800
C3209       C  0.43059335  0.68740997  0.05900061     0.14300
C3210       C  0.42004618  0.66892325  0.06168421     0.01300
C3211       C  0.42399777  0.65246073  0.04857006     0.16200
C3212       C  0.43886510  0.65417113  0.03333206     0.25700
C3213       C  0.45017617  0.67242442  0.03103443    -0.40700
C3214       C  0.44556874  0.68919853  0.04376073     0.32700
C3215       C  0.40551131  0.66627505  0.07868353     0.01300
F3216       F  0.41347264  0.63463562  0.05064379    -0.13000
F3217       F  0.45597611  0.70710599  0.04197328    -0.13500
C3218       C  0.38681980  0.67681778  0.07898063     0.16200
C3219       C  0.37226566  0.67263050  0.09416124     0.25700
C3220       C  0.37634891  0.65785828  0.10912729    -0.40600
C3221       C  0.39544433  0.64800052  0.10925914     0.32600
C3222       C  0.40990786  0.65216484  0.09411903     0.14300
F3223       F  0.38231600  0.69038796  0.06402347    -0.13000
F3224       F  0.40008841  0.63425118  0.12399952    -0.13500
F3225       F  0.35380324  0.68213231  0.09357260    -0.15800
F3226       F  0.42813218  0.64218652  0.09428951    -0.14300
F3227       F  0.42690392  0.70345676  0.07163246    -0.14300
F3228       F  0.44208586  0.63791869  0.02082321    -0.15800
C3229       C  0.42789665  0.55842774  0.18297678     0.14300
C3230       C  0.42398951  0.57009549  0.16549714     0.01300
C3231       C  0.43698416  0.56841946  0.14845439     0.16200
C3232       C  0.45360668  0.55504269  0.14873564     0.25700
C3233       C  0.45751237  0.54301340  0.16613641    -0.40700
C3234       C  0.44451373  0.54496395  0.18332849     0.32700
C3235       C  0.40588522  0.58346203  0.16446373     0.01300
F3236       F  0.43344194  0.57971092  0.13144733    -0.13000
F3237       F  0.44737143  0.53330964  0.20020613    -0.13500
C3238       C  0.40651031  0.60314486  0.17296893     0.16200
C3239       C  0.39032141  0.61669913  0.16954425     0.25700
C3240       C  0.37339055  0.61065441  0.15753859    -0.40600
C3241       C  0.37242545  0.59062574  0.14987416     0.32600
C3242       C  0.38855435  0.57713461  0.15331773     0.14300
F3243       F  0.42331566  0.60956936  0.18354615    -0.13000
F3244       F  0.35614051  0.58434744  0.13843354    -0.13500
F3245       F  0.39194799  0.63615667  0.17653514    -0.15800
F3246       F  0.38765737  0.55810577  0.14510488    -0.14300
F3247       F  0.41526710  0.55968210  0.19947386    -0.14300
F3248       F  0.46589716  0.55396643  0.13196600    -0.15800
C3249       C  0.29265737  0.56765676  0.05138204     0.14300
C3250       C  0.30572800  0.56572418  0.06836125     0.01300
C3251       C  0.31758483  0.54808991  0.07062365     0.16200
C3252       C  0.31721817  0.53302736  0.05554747     0.25700
C3253       C  0.30478378  0.53528137  0.03815469    -0.40700
C3254       C  0.29204494  0.55238698  0.03639669     0.32700
C3255       C  0.30919776  0.58298112  0.08238062     0.01300
F3256       F  0.33043060  0.54603246  0.08685974    -0.13000
F3257       F  0.28005207  0.55490068  0.01960067    -0.13500
C3258       C  0.30495558  0.58107607  0.10337450     0.16200
C3259       C  0.31140522  0.59624606  0.11703372     0.25700
C3260       C  0.32236935  0.61322777  0.10979752    -0.40600
C3261       C  0.32608466  0.61542916  0.08879615     0.32600
C3262       C  0.31937283  0.60045849  0.07511227     0.14300
F3263       F  0.29534338  0.56416238  0.11065754    -0.13000
F3264       F  0.33677560  0.63177147  0.08166266    -0.13500
F3265       F  0.30812253  0.59378936  0.13740868    -0.15800
F3266       F  0.32395897  0.60235782  0.05492298    -0.14300
F3267       F  0.28110358  0.58464386  0.04901424    -0.14300
F3268       F  0.32930257  0.51637219  0.05773126    -0.15800
C3269       C  0.30564727  0.69892216  0.17638865     0.14300
C3270       C  0.29280260  0.68831462  0.18989565     0.01300
C3271       C  0.29330589  0.66701039  0.19029048     0.16200
C3272       C  0.30690149  0.65643680  0.17770188     0.25700
C3273       C  0.32031198  0.66690146  0.16420201    -0.40700
C3274       C  0.31910146  0.68847458  0.16352016     0.32700
C3275       C  0.28005758  0.69970856  0.20457192     0.01300
F3276       F  0.28052805  0.65641742  0.20285615    -0.13000
F3277       F  0.33023788  0.69995261  0.15038912    -0.13500
C3278       C  0.26528116  0.71351610  0.19775530     0.16200
C3279       C  0.25507133  0.72614323  0.21164980     0.25700
C3280       C  0.26036428  0.72606569  0.23279919    -0.40600
C3281       C  0.27382203  0.71042738  0.23946307     0.32600
C3282       C  0.28364992  0.69769501  0.22553426     0.14300
F3283       F  0.26064288  0.71469180  0.17752405    -0.13000
F3284       F  0.27874271  0.70831681  0.25949969    -0.13500
F3285       F  0.23954900  0.73757226  0.20412320    -0.15800
F3286       F  0.29764389  0.68410932  0.23251235    -0.14300
F3287       F  0.30546750  0.71962289  0.17593814    -0.14300
F3288       F  0.30673907  0.63574497  0.17851320    -0.15800
loop_ 
_geom_bond_atom_site_label_1 
_geom_bond_atom_site_label_2 
_geom_bond_distance 
_geom_bond_site_symmetry_2 
_ccdc_geom_bond_type 
C1            C2   1.539       .  S
C1            C7   1.550       .  S
C1            C5   1.549       .  S
C1         C3273   1.531       .  S
C2            H9   1.087       .  S
C2            C3   1.356       .  D
C3            C4   1.524       .  S
C3         C3260   1.464       .  S
C4            C8   1.527       .  S
C4            C6   1.530       .  S
C4           H10   1.111       .  S
C5           H11   1.086       .  S
C5            C6   1.367       .  D
C6         C3240   1.479       .  S
C7           H12   1.081       .  S
C7            C8   1.363       .  D
C8         C3220   1.473       .  S
C13          C14   1.539       .  S
C13          C19   1.541       .  S
C13          C17   1.552       .  S
C13        C3200   1.534       .  S
C14          H21   1.086       .  S
C14          C15   1.360       .  D
C15          C16   1.533       .  S
C15        C3140   1.472       .  S
C16          C20   1.533       .  S
C16          C18   1.536       .  S
C16          H22   1.110       .  S
C17          H23   1.072       .  S
C17          C18   1.370       .  D
C18        C3160   1.489       .  S
C19          H24   1.087       .  S
C19          C20   1.362       .  D
C20        C3173   1.480       .  S
C25          C26   1.552       .  S
C25          C31   1.541       .  S
C25          C29   1.543       .  S
C25        C3113   1.532       .  S
C26          H33   1.081       .  S
C26          C27   1.365       .  D
C27          C28   1.530       .  S
C27        C3053   1.476       .  S
C28          C32   1.534       .  S
C28          C30   1.529       .  S
C28          H34   1.111       .  S
C29          H35   1.087       .  S
C29          C30   1.361       .  D
C30        C3093   1.476       .  S
C31          H36   1.087       .  S
C31          C32   1.362       .  D
C32        C3073   1.480       .  S
C37          C38   1.549       .  S
C37          C43   1.536       .  S
C37          C41   1.548       .  S
C37        C3040   1.525       .  S
C38          H45   1.082       .  S
C38          C39   1.364       .  D
C39          C40   1.530       .  S
C39        C2993   1.477       .  S
C40          C44   1.531       .  S
C40          C42   1.529       .  S
C40          H46   1.112       .  S
C41          H47   1.085       .  S
C41          C42   1.362       .  D
C42        C2973   1.472       .  S
C43          H48   1.086       .  S
C43          C44   1.360       .  D
C44        C3013   1.473       .  S
O49         Ni57   1.912       .  S
O49          C59   1.281       .  A
O50         Ni57   1.912       .  S
O50          C60   1.281       .  A
O51         Ni57   1.914       .  S
O51          C61   1.281       .  A
O52         Ni57   1.914       .  S
O52          C62   1.281       .  A
O53         Ni58   1.921       .  S
O53          C62   1.282       .  A
O54         Ni58   1.921       .  S
O54          C61   1.282       .  A
O55         Ni58   1.915       .  S
O55          C60   1.281       .  A
O56         Ni58   1.916       .  S
O56          C59   1.281       .  A
Ni57        Ni58   2.383       .  S
C59        C3100   1.486       .  S
C60        C2980   1.484       .  S
C61        C3233   1.485       .  S
C62        C3153   1.487       .  S
C63          C64   1.538       .  S
C63          C69   1.548       .  S
C63          C67   1.548       .  S
C63        C2953   1.530       .  S
C64          H71   1.086       .  S
C64          C65   1.361       .  D
C65          C66   1.533       .  S
C65        C2913   1.476       .  S
C66          C70   1.532       .  S
C66          C68   1.532       .  S
C66          H72   1.111       .  S
C67          H73   1.085       .  S
C67          C68   1.364       .  D
C68        C2893   1.479       .  S
C69          H74   1.085       .  S
C69          C70   1.364       .  D
C70        C2933   1.477       .  S
C75          C76   1.551       .  S
C75          C81   1.545       .  S
C75          C79   1.535       .  S
C75        C2873   1.529       .  S
C76          H83   1.081       .  S
C76          C77   1.367       .  D
C77          C78   1.531       .  S
C77        C2833   1.480       .  S
C78          C82   1.535       .  S
C78          C80   1.530       .  S
C78          H84   1.111       .  S
C79          H85   1.087       .  S
C79          C80   1.359       .  D
C80        C2813   1.473       .  S
C81          H86   1.086       .  S
C81          C82   1.364       .  D
C82        C2853   1.480       .  S
C87          C88   1.550       .  S
C87          C93   1.543       .  S
C87          C91   1.538       .  S
C87        C2793   1.531       .  S
C88          H95   1.082       .  S
C88          C89   1.367       .  D
C89          C90   1.536       .  S
C89        C2773   1.489       .  S
C90          C94   1.532       .  S
C90          C92   1.534       .  S
C90          H96   1.109       .  S
C91          H97   1.086       .  S
C91          C92   1.366       .  D
C92        C2753   1.482       .  S
C93          H98   1.086       .  S
C93          C94   1.358       .  D
C94        C2733   1.470       .  S
C99         C100   1.542       .  S
C99         C105   1.547       .  S
C99         C103   1.538       .  S
C99        C2713   1.525       .  S
C100        H107   1.085       .  S
C100        C101   1.359       .  D
C101        C102   1.529       .  S
C101       C2693   1.473       .  S
C102        C106   1.537       .  S
C102        C104   1.528       .  S
C102        H108   1.110       .  S
C103        H109   1.086       .  S
C103        C104   1.359       .  D
C104       C2653   1.470       .  S
C105        H110   1.084       .  S
C105        C106   1.369       .  D
C106       C2680   1.486       .  S
O111       Ni119   1.918       .  S
O111        C121   1.281       .  A
O112       Ni119   1.916   1_554  S
O112        C122   1.280       .  A
O113       Ni119   1.922       .  S
O113        C123   1.282       .  A
O114       Ni119   1.924   1_554  S
O114        C124   1.283       .  A
O115       Ni120   1.895   1_554  S
O115        C124   1.278       .  A
O116       Ni120   1.900       .  S
O116        C123   1.278       .  A
O117       Ni120   1.904   1_554  S
O117        C122   1.279       .  A
O118       Ni120   1.908       .  S
O118        C121   1.281       .  A
Ni119      Ni120   2.387       .  S
C121       C2920   1.485       .  S
C122       C3253   1.465       .  S
C123       C2700   1.472       .  S
C124       C3020   1.480       .  S
O125       Ni133   1.904   1_554  S
O125        C135   1.279       .  A
O126       Ni133   1.906       .  S
O126        C136   1.280       .  A
O127       Ni133   1.908   1_554  S
O127        C137   1.280       .  A
O128       Ni133   1.905       .  S
O128        C138   1.279       .  A
O129       Ni134   1.925       .  S
O129        C138   1.283       .  A
O130       Ni134   1.927   1_554  S
O130        C137   1.283       .  A
O131       Ni134   1.917       .  S
O131        C136   1.281       .  A
O132       Ni134   1.914   1_554  S
O132        C135   1.281       .  A
Ni133      Ni134   2.384       .  S
C135       C3213   1.477       .  S
C136       C2760   1.478       .  S
C137       C3060   1.487       .  S
C138       C2660   1.488       .  S
O139       Ni147   1.901   1_554  S
O139        C149   1.279       .  A
O140       Ni147   1.900       .  S
O140        C150   1.278       .  A
O141       Ni147   1.906       .  S
O141        C151   1.279       .  A
O142       Ni147   1.908   1_554  S
O142        C152   1.280       .  A
O143       Ni148   1.921   1_554  S
O143        C152   1.281       .  A
O144       Ni148   1.921       .  S
O144        C151   1.281       .  A
O145       Ni148   1.931       .  S
O145        C150   1.284       .  A
O146       Ni148   1.931   1_554  S
O146        C149   1.284       .  A
Ni147      Ni148   2.388       .  S
C149       C3133   1.483       .  S
C150       C2740   1.479       .  S
C151       C2820   1.469       .  S
C152       C3080   1.475       .  S
O153       Ni161   1.919       .  S
O153        C163   1.282       .  A
O154       Ni161   1.917   1_554  S
O154        C164   1.280       .  A
O155       Ni161   1.923   1_554  S
O155        C165   1.283       .  A
O156       Ni161   1.919       .  S
O156        C166   1.282       .  A
O157       Ni162   1.910   1_556  S
O157        C166   1.281       .  A
O158       Ni162   1.907       .  S
O158        C165   1.280       .  A
O159       Ni162   1.907       .  S
O159        C164   1.279       .  A
O160       Ni162   1.910   1_556  S
O160        C163   1.280       .  A
Ni161      Ni162   2.385   1_556  S
C163       C2940   1.487       .  S
C164       C3180   1.466       .  S
C165       C3000   1.486       .  S
C166       C2860   1.484       .  S
O167       Ni175   1.909       .  S
O167        C177   1.280       .  A
O168       Ni175   1.910       .  S
O168        C178   1.280       .  A
O169       Ni175   1.899       .  S
O169        C179   1.278       .  A
O170       Ni175   1.904       .  S
O170        C180   1.279       .  A
O171       Ni176   1.929       .  S
O171        C180   1.284       .  A
O172       Ni176   1.931       .  S
O172        C179   1.284       .  A
O173       Ni176   1.926       .  S
O173        C178   1.282       .  A
O174       Ni176   1.925       .  S
O174        C177   1.283       .  A
Ni175      Ni176   2.384       .  S
C177       C2900   1.488       .  S
C178       C2780   1.480       .  S
C179       C2673   1.482       .  S
C180       C2840   1.489       .  S
C181        C182   1.542       .  S
C181        C187   1.554       .  S
C181        C185   1.542       .  S
C181       C2633   1.531       .  S
C182        H189   1.086       .  S
C182        C183   1.363       .  D
C183        C184   1.529       .  S
C183       C2593   1.477       .  S
C184        C188   1.529       .  S
C184        C186   1.530       .  S
C184        H190   1.112       .  S
C185        H191   1.086       .  S
C185        C186   1.361       .  D
C186       C2573   1.472       .  S
C187        H192   1.077       .  S
C187        C188   1.365       .  D
C188       C2613   1.478       .  S
C193        C194   1.543       .  S
C193        C199   1.546       .  S
C193        C197   1.556       .  S
C193       C2553   1.537       .  S
C194        H201   1.086       .  S
C194        C195   1.361       .  D
C195        C196   1.528       .  S
C195       C2493   1.475       .  S
C196        C200   1.529       .  S
C196        C198   1.531       .  S
C196        H202   1.111       .  S
C197        H203   1.079       .  S
C197        C198   1.369       .  D
C198       C2533   1.485       .  S
C199        H204   1.085       .  S
C199        C200   1.362       .  D
C200       C2513   1.473       .  S
C205        C206   1.549       .  S
C205        C211   1.539       .  S
C205        C209   1.550       .  S
C205       C2473   1.533       .  S
C206        H213   1.085       .  S
C206        C207   1.367       .  D
C207        C208   1.532       .  S
C207       C2420   1.483       .  S
C208        C212   1.529       .  S
C208        C210   1.531       .  S
C208        H214   1.111       .  S
C209        H215   1.083       .  S
C209        C210   1.364       .  D
C210       C2433   1.482       .  S
C211        H216   1.086       .  S
C211        C212   1.361       .  D
C212       C2453   1.473       .  S
C217        C218   1.549       .  S
C217        C223   1.549       .  S
C217        C221   1.540       .  S
C217       C2400   1.533       .  S
C218        H225   1.085       .  S
C218        C219   1.368       .  D
C219        C220   1.536       .  S
C219       C2333   1.485       .  S
C220        C224   1.528       .  S
C220        C222   1.527       .  S
C220        H226   1.111       .  S
C221        H227   1.086       .  S
C221        C222   1.362       .  D
C222       C2380   1.472       .  S
C223        H228   1.080       .  S
C223        C224   1.362       .  D
C224       C2353   1.477       .  S
O229       Ni237   1.923       .  S
O229        C239   1.282       .  A
O230       Ni237   1.924       .  S
O230        C240   1.283       .  A
O231       Ni237   1.927       .  S
O231        C241   1.283       .  A
O232       Ni237   1.921       .  S
O232        C242   1.282       .  A
O233       Ni238   1.910       .  S
O233        C242   1.280       .  A
O234       Ni238   1.906       .  S
O234        C241   1.280       .  A
O235       Ni238   1.916       .  S
O235        C240   1.281       .  A
O236       Ni238   1.911       .  S
O236        C239   1.281       .  A
Ni237      Ni238   2.385       .  S
C239       C2440   1.483       .  S
C240       C2520   1.480       .  S
C241       C2340   1.484       .  S
C242       C2620   1.486       .  S
C243        C244   1.553       .  S
C243        C249   1.545       .  S
C243        C247   1.543       .  S
C243       C2320   1.532       .  S
C244        H251   1.078       .  S
C244        C245   1.364       .  D
C245        C246   1.525       .  S
C245       C2273   1.477       .  S
C246        C250   1.531       .  S
C246        C248   1.527       .  S
C246        H252   1.111       .  S
C247        H253   1.086       .  S
C247        C248   1.365       .  D
C248       C2293   1.479       .  S
C249        H254   1.086       .  S
C249        C250   1.362       .  D
C250       C2253   1.474       .  S
C255        C256   1.542       .  S
C255        C261   1.553       .  S
C255        C259   1.545       .  S
C255       C2233   1.533       .  S
C256        H263   1.086       .  S
C256        C257   1.357       .  D
C257        C258   1.528       .  S
C257       C2213   1.471       .  S
C258        C262   1.534       .  S
C258        C260   1.533       .  S
C258        H264   1.110       .  S
C259        H265   1.086       .  S
C259        C260   1.365       .  D
C260       C2193   1.486       .  S
C261        H266   1.073       .  S
C261        C262   1.368       .  D
C262       C2180   1.481       .  S
C267        C268   1.553       .  S
C267        C273   1.540       .  S
C267        C271   1.547       .  S
C267       C2153   1.533       .  S
C268        H275   1.084       .  S
C268        C269   1.365       .  D
C269        C270   1.527       .  S
C269       C2113   1.476       .  S
C270        C274   1.530       .  S
C270        C272   1.529       .  S
C270        H276   1.112       .  S
C271        H277   1.085       .  S
C271        C272   1.363       .  D
C272       C2093   1.475       .  S
C273        H278   1.092       .  S
C273        C274   1.363       .  D
C274       C2133   1.476       .  S
C279        C280   1.549       .  S
C279        C285   1.550       .  S
C279        C283   1.541       .  S
C279       C2080   1.536       .  S
C280        H287   1.085       .  S
C280        C281   1.365       .  D
C281        C282   1.530       .  S
C281       C2053   1.481       .  S
C282        C286   1.528       .  S
C282        C284   1.532       .  S
C282        H288   1.110       .  S
C283        H289   1.086       .  S
C283        C284   1.366       .  D
C284       C2033   1.485       .  S
C285        H290   1.083       .  S
C285        C286   1.364       .  D
C286       C2013   1.473       .  S
O291       Ni299   1.906   1_545  S
O291        C301   1.279       .  A
O292       Ni299   1.906       .  S
O292        C302   1.279       .  A
O293       Ni299   1.908   1_545  S
O293        C303   1.281       .  A
O294       Ni299   1.907       .  S
O294        C304   1.280       .  A
O295       Ni300   1.911       .  S
O295        C304   1.280       .  A
O296       Ni300   1.911   1_545  S
O296        C303   1.280       .  A
O297       Ni300   1.929       .  S
O297        C302   1.284       .  A
O298       Ni300   1.929   1_545  S
O298        C301   1.284       .  A
Ni299      Ni300   2.385       .  S
C301       C2500   1.488       .  S
C302       C2040   1.488       .  S
C303       C2580   1.478       .  S
C304       C2260   1.474       .  S
O305       Ni313   1.914   1_545  S
O305        C315   1.281       .  A
O306       Ni313   1.908       .  S
O306        C316   1.280       .  A
O307       Ni313   1.907       .  S
O307        C317   1.279       .  A
O308       Ni313   1.910   1_545  S
O308        C318   1.280       .  A
O309       Ni314   1.922   1_545  S
O309        C318   1.282       .  A
O310       Ni314   1.919       .  S
O310        C317   1.281       .  A
O311       Ni314   1.922       .  S
O311        C316   1.282       .  A
O312       Ni314   1.920   1_545  S
O312        C315   1.282       .  A
Ni313      Ni314   2.386       .  S
C315       C2413   1.482       .  S
C316       C2020   1.482       .  S
C317       C2100   1.467       .  S
C318       C2600   1.488       .  S
O319       Ni327   1.904       .  S
O319        C329   1.279       .  A
O320       Ni327   1.904   1_545  S
O320        C330   1.279       .  A
O321       Ni327   1.908   1_545  S
O321        C331   1.280       .  A
O322       Ni327   1.906       .  S
O322        C332   1.280       .  A
O323       Ni328   1.923       .  S
O323        C332   1.282       .  A
O324       Ni328   1.924   1_545  S
O324        C331   1.283       .  A
O325       Ni328   1.925   1_545  S
O325        C330   1.283       .  A
O326       Ni328   1.924       .  S
O326        C329   1.283       .  A
Ni327      Ni328   2.382       .  S
C329       C2140   1.488       .  S
C330       C2360   1.483       .  S
C331       C2460   1.488       .  S
C332       C2220   1.487       .  S
O333       Ni341   1.912       .  S
O333        C343   1.281       .  A
O334       Ni341   1.912   1_545  S
O334        C344   1.280       .  A
O335       Ni341   1.907       .  S
O335        C345   1.280       .  A
O336       Ni341   1.902   1_545  S
O336        C346   1.279       .  A
O337       Ni342   1.932   1_545  S
O337        C346   1.284       .  A
O338       Ni342   1.929       .  S
O338        C345   1.284       .  A
O339       Ni342   1.923   1_545  S
O339        C344   1.282       .  A
O340       Ni342   1.923       .  S
O340        C343   1.282       .  A
Ni341      Ni342   2.385       .  S
C343       C2300   1.482       .  S
C344       C2373   1.478       .  S
C345       C2200   1.487       .  S
C346       C2540   1.486       .  S
O347       Ni355   1.917       .  S
O347        C357   1.280       .  A
O348       Ni355   1.917       .  S
O348        C358   1.281       .  A
O349       Ni355   1.921       .  S
O349        C359   1.282       .  A
O350       Ni355   1.922       .  S
O350        C360   1.283       .  A
O351       Ni356   1.914       .  S
O351        C360   1.281       .  A
O352       Ni356   1.915       .  S
O352        C359   1.281       .  A
O353       Ni356   1.920       .  S
O353        C358   1.282       .  A
O354       Ni356   1.916       .  S
O354        C357   1.282       .  A
Ni355      Ni356   2.384       .  S
C357       C2173   1.478       .  S
C358       C2060   1.487       .  S
C359       C2120   1.485       .  S
C360       C2280   1.491       .  S
C361        C362   1.549       .  S
C361        C367   1.540       .  S
C361        C365   1.544       .  S
C361       C2000   1.526       .  S
C362        H369   1.082       .  S
C362        C363   1.364       .  D
C363        C364   1.530       .  S
C363       C1973   1.474       .  S
C364        C368   1.529       .  S
C364        C366   1.530       .  S
C364        H370   1.112       .  S
C365        H371   1.084       .  S
C365        C366   1.360       .  D
C366       C1933   1.472       .  S
C367        H372   1.087       .  S
C367        C368   1.363       .  D
C368       C1953   1.474       .  S
C373        C374   1.544       .  S
C373        C379   1.544       .  S
C373        C377   1.555       .  S
C373       C1913   1.536       .  S
C374        H381   1.087       .  S
C374        C375   1.361       .  D
C375        C376   1.529       .  S
C375       C1893   1.478       .  S
C376        C380   1.532       .  S
C376        C378   1.527       .  S
C376        H382   1.111       .  S
C377        H383   1.079       .  S
C377        C378   1.366       .  D
C378       C1873   1.474       .  S
C379        H384   1.087       .  S
C379        C380   1.364       .  D
C380       C1860   1.482       .  S
C385        C386   1.547       .  S
C385        C391   1.543       .  S
C385        C389   1.554       .  S
C385       C1833   1.535       .  S
C386        H393   1.087       .  S
C386        C387   1.365       .  D
C387        C388   1.530       .  S
C387       C1773   1.483       .  S
C388        C392   1.528       .  S
C388        C390   1.527       .  S
C388        H394   1.110       .  S
C389        H395   1.079       .  S
C389        C390   1.365       .  D
C390       C1813   1.482       .  S
C391        H396   1.086       .  S
C391        C392   1.363       .  D
C392       C1793   1.475       .  S
C397        C398   1.544       .  S
C397        C403   1.553       .  S
C397        C401   1.540       .  S
C397       C1760   1.535       .  S
C398        H405   1.086       .  S
C398        C399   1.359       .  D
C399        C400   1.531       .  S
C399       C1720   1.471       .  S
C400        C404   1.534       .  S
C400        C402   1.529       .  S
C400        H406   1.110       .  S
C401        H407   1.086       .  S
C401        C402   1.362       .  D
C402       C1693   1.477       .  S
C403        H408   1.077       .  S
C403        C404   1.370       .  D
C404       C1740   1.487       .  S
O409       Ni417   1.928       .  S
O409        C419   1.283       .  A
O410       Ni417   1.927   1_455  S
O410        C420   1.284       .  A
O411       Ni417   1.923       .  S
O411        C421   1.282       .  A
O412       Ni417   1.923   1_455  S
O412        C422   1.282       .  A
O413       Ni418   1.910   1_455  S
O413        C422   1.280       .  A
O414       Ni418   1.911       .  S
O414        C421   1.280       .  A
O415       Ni418   1.898   1_455  S
O415        C420   1.278       .  A
O416       Ni418   1.896       .  S
O416        C419   1.278       .  A
Ni417      Ni418   2.386       .  S
C419       C1700   1.479       .  S
C420       C1673   1.482       .  S
C421       C1780   1.480       .  S
C422       C1660   1.475       .  S
O423       Ni431   1.918       .  S
O423        C433   1.282       .  A
O424       Ni431   1.919   1_455  S
O424        C434   1.281       .  A
O425       Ni431   1.916   1_455  S
O425        C435   1.280       .  A
O426       Ni431   1.915       .  S
O426        C436   1.281       .  A
O427       Ni432   1.905       .  S
O427        C436   1.279       .  A
O428       Ni432   1.907   1_455  S
O428        C435   1.280       .  A
O429       Ni432   1.907   1_455  S
O429        C434   1.280       .  A
O430       Ni432   1.911       .  S
O430        C433   1.280       .  A
Ni431      Ni432   2.388       .  S
C433       C1713   1.480       .  S
C434       C1633   1.482       .  S
C435       C1620   1.471       .  S
C436       C1940   1.473       .  S
O437       Ni445   1.921       .  S
O437        C447   1.282       .  A
O438       Ni445   1.923   1_655  S
O438        C448   1.282       .  A
O439       Ni445   1.929       .  S
O439        C449   1.284       .  A
O440       Ni445   1.932   1_655  S
O440        C450   1.284       .  A
O441       Ni446   1.898   1_655  S
O441        C450   1.278       .  A
O442       Ni446   1.901       .  S
O442        C449   1.279       .  A
O443       Ni446   1.909   1_655  S
O443        C448   1.280       .  A
O444       Ni446   1.907       .  S
O444        C447   1.280       .  A
Ni445      Ni446   2.386       .  S
C447       C1573   1.484       .  S
C448       C1820   1.476       .  S
C449       C1593   1.483       .  S
C450       C1900   1.480       .  S
O451       Ni459   1.908       .  S
O451        C461   1.280       .  A
O452       Ni459   1.912   1_655  S
O452        C462   1.281       .  A
O453       Ni459   1.908   1_655  S
O453        C463   1.280       .  A
O454       Ni459   1.909       .  S
O454        C464   1.280       .  A
O455       Ni460   1.925       .  S
O455        C464   1.283       .  A
O456       Ni460   1.925   1_655  S
O456        C463   1.283       .  A
O457       Ni460   1.918   1_655  S
O457        C462   1.281       .  A
O458       Ni460   1.919       .  S
O458        C461   1.281       .  A
Ni459      Ni460   2.385       .  S
C461       C1560   1.478       .  S
C462       C1880   1.483       .  S
C463       C1980   1.490       .  S
C464       C1533   1.479       .  S
O465       Ni473   1.907       .  S
O465        C475   1.280       .  A
O466       Ni473   1.905       .  S
O466        C476   1.279       .  A
O467       Ni473   1.916       .  S
O467        C477   1.282       .  A
O468       Ni473   1.918       .  S
O468        C478   1.282       .  A
O469       Ni474   1.913       .  S
O469        C478   1.280       .  A
O470       Ni474   1.912       .  S
O470        C477   1.280       .  A
O471       Ni474   1.923       .  S
O471        C476   1.283       .  A
O472       Ni474   1.925       .  S
O472        C475   1.282       .  A
Ni473      Ni474   2.385       .  S
C475       C1733   1.482       .  S
C476       C1853   1.481       .  S
C477       C1800   1.487       .  S
C478       C1960   1.479       .  S
C479        C480   1.543       .  S
C479        C485   1.545       .  S
C479        C483   1.552       .  S
C479       C1520   1.530       .  S
C480        H487   1.086       .  S
C480        C481   1.361       .  D
C481        C482   1.526       .  S
C481       C1500   1.472       .  S
C482        C486   1.528       .  S
C482        C484   1.528       .  S
C482        H488   1.111       .  S
C483        H489   1.081       .  S
C483        C484   1.363       .  D
C484       C1640   1.474       .  S
C485        H490   1.086       .  S
C485        C486   1.362       .  D
C486       C1553   1.475       .  S
C491        C492   1.538       .  S
C491        C497   1.548       .  S
C491        C495   1.547       .  S
C491       C1473   1.529       .  S
C492        H499   1.086       .  S
C492        C493   1.362       .  D
C493        C494   1.533       .  S
C493       C1453   1.479       .  S
C494        C498   1.530       .  S
C494        C496   1.530       .  S
C494        H500   1.111       .  S
C495        H501   1.085       .  S
C495        C496   1.363       .  D
C496       C1600   1.473       .  S
C497        H502   1.079       .  S
C497        C498   1.363       .  D
C498       C1680   1.477       .  S
C503        C504   1.543       .  S
C503        C509   1.541       .  S
C503        C507   1.553       .  S
C503       C1433   1.538       .  S
C504        H511   1.087       .  S
C504        C505   1.364       .  D
C505        C506   1.533       .  S
C505       C1413   1.481       .  S
C506        C510   1.532       .  S
C506        C508   1.532       .  S
C506        H512   1.111       .  S
C507        H513   1.082       .  S
C507        C508   1.365       .  D
C508       C1653   1.483       .  S
C509        H514   1.087       .  S
C509        C510   1.362       .  D
C510       C1613   1.476       .  S
C515        C516   1.555       .  S
C515        C521   1.542       .  S
C515        C519   1.541       .  S
C515       C1393   1.533       .  S
C516        H523   1.086       .  S
C516        C517   1.368       .  D
C517        C518   1.530       .  S
C517       C1540   1.484       .  S
C518        C522   1.528       .  S
C518        C520   1.531       .  S
C518        H524   1.110       .  S
C519        H525   1.087       .  S
C519        C520   1.360       .  D
C520       C1580   1.476       .  S
C521        H526   1.087       .  S
C521        C522   1.360       .  D
C522       C1373   1.471       .  S
O527       Ni535   1.924       .  S
O527        C537   1.282       .  A
O528       Ni535   1.932       .  S
O528        C538   1.285       .  A
O529       Ni535   1.919       .  S
O529        C539   1.282       .  A
O530       Ni535   1.922       .  S
O530        C540   1.282       .  A
O531       Ni536   1.907       .  S
O531        C540   1.280       .  A
O532       Ni536   1.908       .  S
O532        C539   1.280       .  A
O533       Ni536   1.901       .  S
O533        C538   1.278       .  A
O534       Ni536   1.901       .  S
O534        C537   1.279       .  A
Ni535      Ni536   2.386       .  S
C537       C1380   1.476       .  S
C538       C1420   1.490       .  S
C539       C1493   1.478       .  S
C540       C1460   1.474       .  S
C541       C1353   1.559       .  S
C541       C1400   1.560       .  S
C541       C2393   1.562       .  S
C541       C3033   1.560       .  S
C542       C1333   1.567       .  S
C542       C1920   1.564       .  S
C542       C2560   1.563       .  S
C542       C3193   1.561       .  S
C543       C1313   1.567       .  S
C543       C1480   1.562       .  S
C543       C2240   1.560       .  S
C543       C3280   1.560       .  S
C544       C1300   1.567       .  S
C544       C1513   1.559       .  S
C544       C2480   1.563       .  S
C544       C2960   1.564       .  S
C545       C1273   1.559       .  S
C545       C1993   1.558       .  S
C545       C2640   1.561       .  S
C545       C2880   1.561       .  S
C546       C1260   1.557       .  S
C546       C1840   1.563       .  S
C546       C2313   1.561       .  S
C546       C3120   1.558       .  S
C547       C1233   1.564       .  S
C547       C1440   1.564       .  S
C547       C2160   1.562       .  S
C547       C2720   1.559       .  S
C548        C549   1.553       .  S
C548        C554   1.545       .  S
C548        C552   1.538       .  S
C548       C1360   1.532       .  S
C549        H556   1.085       .  S
C549        C550   1.368       .  D
C550        C551   1.531       .  S
C550       C1220   1.481       .  S
C551        C555   1.527       .  S
C551        C553   1.530       .  S
C551        H557   1.110       .  S
C552        H558   1.086       .  S
C552        C553   1.359       .  D
C553       C1200   1.476       .  S
C554        H559   1.086       .  S
C554        C555   1.361       .  D
C555       C1173   1.474       .  S
C560        C561   1.550       .  S
C560        C566   1.553       .  S
C560        C564   1.539       .  S
C560       C1293   1.536       .  S
C561        H568   1.086       .  S
C561        C562   1.366       .  D
C562        C563   1.533       .  S
C562       C1153   1.481       .  S
C563        C567   1.530       .  S
C563        C565   1.529       .  S
C563        H569   1.112       .  S
C564        H570   1.088       .  S
C564        C565   1.360       .  D
C565       C1133   1.474       .  S
C566        H571   1.082       .  S
C566        C567   1.366       .  D
C567       C1113   1.478       .  S
C572        C573   1.553       .  S
C572        C578   1.541       .  S
C572        C576   1.547       .  S
C572       C1340   1.534       .  S
C573        H580   1.081       .  S
C573        C574   1.369       .  D
C574        C575   1.532       .  S
C574       C1100   1.484       .  S
C575        C579   1.530       .  S
C575        C577   1.532       .  S
C575        H581   1.111       .  S
C576        H582   1.086       .  S
C576        C577   1.363       .  D
C577       C1080   1.480       .  S
C578        H583   1.086       .  S
C578        C579   1.361       .  D
C579       C1053   1.479       .  S
C584        C585   1.555       .  S
C584        C590   1.543       .  S
C584        C588   1.548       .  S
C584       C1320   1.541       .  S
C585        H592   1.078       .  S
C585        C586   1.366       .  D
C586        C587   1.528       .  S
C586       C1013   1.480       .  S
C587        C591   1.531       .  S
C587        C589   1.531       .  S
C587        H593   1.111       .  S
C588        H594   1.087       .  S
C588        C589   1.366       .  D
C589       C1040   1.483       .  S
C590        H595   1.086       .  S
C590        C591   1.364       .  D
C591       C1000   1.484       .  S
C596        C597   1.549       .  S
C596        C602   1.531       .  S
C596        C600   1.542       .  S
C596       C1253   1.520       .  S
C597        H604   1.083       .  S
C597        C598   1.368       .  D
C598        C599   1.534       .  S
C598        C953   1.484       .  S
C599        C603   1.533       .  S
C599        C601   1.533       .  S
C599        H605   1.110       .  S
C600        H606   1.085       .  S
C600        C601   1.362       .  D
C601        C973   1.476       .  S
C602        H607   1.086       .  S
C602        C603   1.355       .  D
C603        C940   1.464       .  S
O608       Ni616   1.899       .  S
O608        C618   1.278       .  A
O609       Ni616   1.895   1_665  S
O609        C619   1.277       .  A
O610       Ni616   1.910   1_655  S
O610        C620   1.281       .  A
O611       Ni616   1.911   1_565  S
O611        C621   1.280       .  A
O612       Ni617   1.929   1_565  S
O612        C621   1.283       .  A
O613       Ni617   1.927   1_655  S
O613        C620   1.283       .  A
O614       Ni617   1.921   1_665  S
O614        C619   1.282       .  A
O615       Ni617   1.921       .  S
O615        C618   1.282       .  A
Ni616      Ni617   2.386       .  S
C618       C1193   1.473       .  S
C619        C933   1.475       .  S
C620       C1073   1.490       .  S
C621       C1020   1.479       .  S
C622        C623   1.549       .  S
C622        C628   1.546       .  S
C622        C626   1.539       .  S
C622       C1240   1.531       .  S
C623        H630   1.082       .  S
C623        C624   1.361       .  D
C624        C625   1.528       .  S
C624        C873   1.471       .  S
C625        C629   1.535       .  S
C625        C627   1.530       .  S
C625        H631   1.111       .  S
C626        H632   1.085       .  S
C626        C627   1.363       .  D
C627        C920   1.473       .  S
C628        H633   1.084       .  S
C628        C629   1.365       .  D
C629        C893   1.486       .  S
O634       Ni642   1.911   1_546  S
O634        C644   1.280       .  A
O635       Ni642   1.913       .  S
O635        C645   1.280       .  A
O636       Ni642   1.908   1_545  S
O636        C646   1.280       .  A
O637       Ni642   1.910   1_556  S
O637        C647   1.281       .  A
O638       Ni643   1.919   1_556  S
O638        C647   1.281       .  A
O639       Ni643   1.922   1_545  S
O639        C646   1.282       .  A
O640       Ni643   1.925       .  S
O640        C645   1.282       .  A
O641       Ni643   1.927   1_546  S
O641        C644   1.283       .  A
Ni642      Ni643   2.385       .  S
C644       C1120   1.492       .  S
C645        C993   1.475       .  S
C646       C1180   1.477       .  S
C647        C880   1.484       .  S
C648        C649   1.545       .  S
C648        C654   1.543       .  S
C648        C652   1.548       .  S
C648       C1280   1.530       .  S
C649        H656   1.082       .  S
C649        C650   1.360       .  D
C650        C651   1.530       .  S
C650        C840   1.472       .  S
C651        C655   1.531       .  S
C651        C653   1.532       .  S
C651        H657   1.111       .  S
C652        H658   1.085       .  S
C652        C653   1.363       .  D
C653        C813   1.479       .  S
C654        H659   1.086       .  S
C654        C655   1.366       .  D
C655        C860   1.480       .  S
O660       Ni668   1.920   1_554  S
O660        C670   1.282       .  A
O661       Ni668   1.923   1_655  S
O661        C671   1.282       .  A
O662       Ni668   1.928   1_654  S
O662        C672   1.283       .  A
O663       Ni668   1.929       .  S
O663        C673   1.284       .  A
O664       Ni669   1.905       .  S
O664        C673   1.279       .  A
O665       Ni669   1.906   1_654  S
O665        C672   1.280       .  A
O666       Ni669   1.910   1_655  S
O666        C671   1.281       .  A
O667       Ni669   1.911   1_554  S
O667        C670   1.280       .  A
Ni668      Ni669   2.384       .  S
C670       C1213   1.484       .  S
C671        C820   1.480       .  S
C672       C1060   1.485       .  S
C673       C1140   1.487       .  S
C674        C675   1.543       .  S
C674        C680   1.555       .  S
C674        C678   1.546       .  S
C674        C793   1.540       .  S
C675        H682   1.087       .  S
C675        C676   1.361       .  D
C676        C677   1.528       .  S
C676        C733   1.480       .  S
C677        C681   1.534       .  S
C677        C679   1.530       .  S
C677        H683   1.111       .  S
C678        H684   1.086       .  S
C678        C679   1.364       .  D
C679        C773   1.476       .  S
C680        H685   1.081       .  S
C680        C681   1.370       .  D
C681        C753   1.490       .  S
O686       Ni694   1.927   1_656  S
O686        C696   1.283       .  A
O687       Ni694   1.925       .  S
O687        C697   1.283       .  A
O688       Ni694   1.924   1_655  S
O688        C698   1.283       .  A
O689       Ni694   1.922   1_556  S
O689        C699   1.282       .  A
O690       Ni695   1.903   1_556  S
O690        C699   1.279       .  A
O691       Ni695   1.902   1_655  S
O691        C698   1.278       .  A
O692       Ni695   1.913       .  S
O692        C697   1.281       .  A
O693       Ni695   1.913   1_656  S
O693        C696   1.281       .  A
Ni694      Ni695   2.383       .  S
C696        C760   1.484       .  S
C697       C1033   1.491       .  S
C698        C980   1.486       .  S
C699        C913   1.480       .  S
O700       Ni708   1.926       .  S
O700        C710   1.282       .  A
O701       Ni708   1.922   1_544  S
O701        C711   1.282       .  A
O702       Ni708   1.922   1_545  S
O702        C712   1.282       .  A
O703       Ni708   1.921   1_554  S
O703        C713   1.282       .  A
O704       Ni709   1.907   1_554  S
O704        C713   1.280       .  A
O705       Ni709   1.902   1_545  S
O705        C712   1.279       .  A
O706       Ni709   1.908   1_544  S
O706        C711   1.279       .  A
O707       Ni709   1.908       .  S
O707        C710   1.280       .  A
Ni708      Ni709   2.385       .  S
C710        C740   1.481       .  S
C711       C1093   1.478       .  S
C712        C833   1.483       .  S
C713        C960   1.485       .  S
O714       Ni722   1.904       .  S
O714        C724   1.279       .  A
O715       Ni722   1.906   1_645  S
O715        C725   1.279       .  A
O716       Ni722   1.905   1_655  S
O716        C726   1.279       .  A
O717       Ni722   1.903   1_545  S
O717        C727   1.279       .  A
O718       Ni723   1.929   1_545  S
O718        C727   1.283       .  A
O719       Ni723   1.928   1_655  S
O719        C726   1.283       .  A
O720       Ni723   1.931   1_645  S
O720        C725   1.284       .  A
O721       Ni723   1.930       .  S
O721        C724   1.284       .  A
Ni722      Ni723   2.383       .  S
C724        C900   1.481       .  S
C725        C853   1.491       .  S
C726        C780   1.489       .  S
C727       C1160   1.483       .  S
C728        C800   1.567       .  S
C728       C1753   1.566       .  S
C728       C2073   1.565       .  S
C728       C2800   1.565       .  S
C729        C730   1.402       .  A
C729        C734   1.395       .  A
C729        F747   1.358       .  S
C730        C735   1.475       .  S
C730        C731   1.404       .  A
C731        C732   1.403       .  A
C731        F736   1.358       .  S
C732        C733   1.408       .  A
C732        F748   1.358       .  S
C733        C734   1.405       .  A
C734        F737   1.358       .  S
C735        C738   1.401       .  A
C735        C742   1.403       .  A
C738        C739   1.395       .  A
C738        F743   1.358       .  S
C739        C740   1.409       .  A
C739        F745   1.358       .  S
C740        C741   1.410       .  A
C741        C742   1.403       .  A
C741        F744   1.358       .  S
C742        F746   1.357       .  S
C749        C750   1.405       .  A
C749        C754   1.404       .  A
C749        F767   1.357       .  S
C750        C755   1.481       .  S
C750        C751   1.403       .  A
C751        C752   1.397       .  A
C751        F756   1.358       .  S
C752        C753   1.409       .  A
C752        F768   1.358       .  S
C753        C754   1.410       .  A
C754        F757   1.357       .  S
C755        C758   1.405       .  A
C755        C762   1.403       .  A
C758        C759   1.405       .  A
C758        F763   1.358       .  S
C759        C760   1.411       .  A
C759        F765   1.358       .  S
C760        C761   1.408       .  A
C761        C762   1.396       .  A
C761        F764   1.358       .  S
C762        F766   1.358       .  S
C769        C770   1.405       .  A
C769        C774   1.394       .  A
C769        F787   1.358       .  S
C770        C775   1.479       .  S
C770        C771   1.406       .  A
C771        C772   1.402       .  A
C771        F776   1.358       .  S
C772        C773   1.406       .  A
C772        F788   1.358       .  S
C773        C774   1.403       .  A
C774        F777   1.358       .  S
C775        C778   1.402       .  A
C775        C782   1.404       .  A
C778        C779   1.393       .  A
C778        F783   1.359       .  S
C779        C780   1.413       .  A
C779        F785   1.358       .  S
C780        C781   1.413       .  A
C781        C782   1.403       .  A
C781        F784   1.357       .  S
C782        F786   1.358       .  S
C789        C790   1.403       .  A
C789        C794   1.402       .  A
C789        F807   1.358       .  S
C790        C795   1.487       .  S
C790        C791   1.403       .  A
C791        C792   1.397       .  A
C791        F796   1.358       .  S
C792        C793   1.417       .  A
C792        F808   1.359       .  S
C793        C794   1.419       .  A
C794        F797   1.352       .  S
C795        C798   1.400       .  A
C795        C802   1.403       .  A
C798        C799   1.395       .  A
C798        F803   1.358       .  S
C799        C800   1.422       .  A
C799        F805   1.356       .  S
C800        C801   1.425       .  A
C801        C802   1.402       .  A
C801        F804   1.356       .  S
C802        F806   1.358       .  S
C809        C810   1.403       .  A
C809        C814   1.394       .  A
C809        F827   1.358       .  S
C810        C815   1.474       .  S
C810        C811   1.403       .  A
C811        C812   1.402       .  A
C811        F816   1.357       .  S
C812        C813   1.408       .  A
C812        F828   1.358       .  S
C813        C814   1.404       .  A
C814        F817   1.358       .  S
C815        C818   1.402       .  A
C815        C822   1.403       .  A
C818        C819   1.394       .  A
C818        F823   1.358       .  S
C819        C820   1.407       .  A
C819        F825   1.358       .  S
C820        C821   1.410       .  A
C821        C822   1.403       .  A
C821        F824   1.358       .  S
C822        F826   1.358       .  S
C829        C830   1.400       .  A
C829        C834   1.392       .  A
C829        F847   1.359       .  S
C830        C835   1.473       .  S
C830        C831   1.403       .  A
C831        C832   1.401       .  A
C831        F836   1.358       .  S
C832        C833   1.412       .  A
C832        F848   1.358       .  S
C833        C834   1.411       .  A
C834        F837   1.358       .  S
C835        C838   1.405       .  A
C835        C842   1.404       .  A
C838        C839   1.394       .  A
C838        F843   1.358       .  S
C839        C840   1.401       .  A
C839        F845   1.358       .  S
C840        C841   1.406       .  A
C841        C842   1.399       .  A
C841        F844   1.358       .  S
C842        F846   1.358       .  S
C849        C850   1.404       .  A
C849        C854   1.405       .  A
C849        F867   1.357       .  S
C850        C855   1.480       .  S
C850        C851   1.401       .  A
C851        C852   1.395       .  A
C851        F856   1.359       .  S
C852        C853   1.413       .  A
C852        F868   1.358       .  S
C853        C854   1.413       .  A
C854        F857   1.357       .  S
C855        C858   1.406       .  A
C855        C862   1.404       .  A
C858        C859   1.403       .  A
C858        F863   1.358       .  S
C859        C860   1.406       .  A
C859        F865   1.357       .  S
C860        C861   1.405       .  A
C861        C862   1.396       .  A
C861        F864   1.358       .  S
C862        F866   1.358       .  S
C869        C870   1.403       .  A
C869        C874   1.394       .  A
C869        F887   1.358       .  S
C870        C875   1.471       .  S
C870        C871   1.404       .  A
C871        C872   1.400       .  A
C871        F876   1.358       .  S
C872        C873   1.405       .  A
C872        F888   1.358       .  S
C873        C874   1.402       .  A
C874        F877   1.358       .  S
C875        C878   1.400       .  A
C875        C882   1.401       .  A
C878        C879   1.393       .  A
C878        F883   1.358       .  S
C879        C880   1.411       .  A
C879        F885   1.358       .  S
C880        C881   1.414       .  A
C881        C882   1.402       .  A
C881        F884   1.358       .  S
C882        F886   1.358       .  S
C889        C890   1.404       .  A
C889        C894   1.397       .  A
C889        F907   1.358       .  S
C890        C895   1.477       .  S
C890        C891   1.402       .  A
C891        C892   1.400       .  A
C891        F896   1.358       .  S
C892        C893   1.410       .  A
C892        F908   1.357       .  S
C893        C894   1.408       .  A
C894        F897   1.358       .  S
C895        C898   1.401       .  A
C895        C902   1.405       .  A
C898        C899   1.394       .  A
C898        F903   1.358       .  S
C899        C900   1.409       .  A
C899        F905   1.358       .  S
C900        C901   1.410       .  A
C901        C902   1.404       .  A
C901        F904   1.358       .  S
C902        F906   1.358       .  S
C909        C910   1.402       .  A
C909        C914   1.401       .  A
C909        F927   1.357       .  S
C910        C915   1.470       .  S
C910        C911   1.400       .  A
C911        C912   1.393       .  A
C911        F916   1.358       .  S
C912        C913   1.411       .  A
C912        F928   1.358       .  S
C913        C914   1.411       .  A
C914        F917   1.358       .  S
C915        C918   1.404       .  A
C915        C922   1.402       .  A
C918        C919   1.399       .  A
C918        F923   1.358       .  S
C919        C920   1.404       .  A
C919        F925   1.358       .  S
C920        C921   1.404       .  A
C921        C922   1.396       .  A
C921        F924   1.358       .  S
C922        F926   1.358       .  S
C929        C930   1.402       .  A
C929        C934   1.401       .  A
C929        F947   1.357       .  S
C930        C935   1.467       .  S
C930        C931   1.400       .  A
C931        C932   1.389       .  A
C931        F936   1.359       .  S
C932        C933   1.409       .  A
C932        F948   1.358       .  S
C933        C934   1.410       .  A
C934        F937   1.358       .  S
C935        C938   1.403       .  A
C935        C942   1.404       .  A
C938        C939   1.396       .  A
C938        F943   1.358       .  S
C939        C940   1.402       .  A
C939        F945   1.357       .  S
C940        C941   1.400       .  A
C941        C942   1.395       .  A
C941        F944   1.358       .  S
C942        F946   1.358       .  S
C949        C950   1.403       .  A
C949        C954   1.400       .  A
C949        F967   1.358       .  S
C950        C955   1.475       .  S
C950        C951   1.402       .  A
C951        C952   1.393       .  A
C951        F956   1.358       .  S
C952        C953   1.407       .  A
C952        F968   1.355       .  S
C953        C954   1.411       .  A
C954        F957   1.357       .  S
C955        C958   1.402       .  A
C955        C962   1.401       .  A
C958        C959   1.400       .  A
C958        F963   1.358       .  S
C959        C960   1.413       .  A
C959        F965   1.358       .  S
C960        C961   1.412       .  A
C961        C962   1.393       .  A
C961        F964   1.358       .  S
C962        F966   1.359       .  S
C969        C970   1.403       .  A
C969        C974   1.398       .  A
C969        F987   1.358       .  S
C970        C975   1.474       .  S
C970        C971   1.404       .  A
C971        C972   1.395       .  A
C971        F976   1.358       .  S
C972        C973   1.403       .  A
C972        F988   1.357       .  S
C973        C974   1.408       .  A
C974        F977   1.358       .  S
C975        C978   1.401       .  A
C975        C982   1.402       .  A
C978        C979   1.393       .  A
C978        F983   1.359       .  S
C979        C980   1.413       .  A
C979        F985   1.358       .  S
C980        C981   1.412       .  A
C981        C982   1.400       .  A
C981        F984   1.357       .  S
C982        F986   1.358       .  S
C989        C990   1.403       .  A
C989        C994   1.398       .  A
C989       F1007   1.358       .  S
C990        C995   1.476       .  S
C990        C991   1.405       .  A
C991        C992   1.402       .  A
C991        F996   1.358       .  S
C992        C993   1.406       .  A
C992       F1008   1.358       .  S
C993        C994   1.406       .  A
C994        F997   1.358       .  S
C995        C998   1.400       .  A
C995       C1002   1.405       .  A
C998        C999   1.394       .  A
C998       F1003   1.358       .  S
C999       C1000   1.407       .  A
C999       F1005   1.357       .  S
C1000      C1001   1.408       .  A
C1001      C1002   1.405       .  A
C1001      F1004   1.358       .  S
C1002      F1006   1.357       .  S
C1009      C1010   1.406       .  A
C1009      C1014   1.404       .  A
C1009      F1027   1.358       .  S
C1010      C1015   1.480       .  S
C1010      C1011   1.404       .  A
C1011      C1012   1.397       .  A
C1011      F1016   1.358       .  S
C1012      C1013   1.404       .  A
C1012      F1028   1.358       .  S
C1013      C1014   1.407       .  A
C1014      F1017   1.358       .  S
C1015      C1018   1.405       .  A
C1015      C1022   1.404       .  A
C1018      C1019   1.402       .  A
C1018      F1023   1.357       .  S
C1019      C1020   1.406       .  A
C1019      F1025   1.357       .  S
C1020      C1021   1.408       .  A
C1021      C1022   1.399       .  A
C1021      F1024   1.358       .  S
C1022      F1026   1.358       .  S
C1029      C1030   1.404       .  A
C1029      C1034   1.402       .  A
C1029      F1047   1.358       .  S
C1030      C1035   1.483       .  S
C1030      C1031   1.404       .  A
C1031      C1032   1.397       .  A
C1031      F1036   1.358       .  S
C1032      C1033   1.412       .  A
C1032      F1048   1.358       .  S
C1033      C1034   1.413       .  A
C1034      F1037   1.357       .  S
C1035      C1038   1.407       .  A
C1035      C1042   1.405       .  A
C1038      C1039   1.402       .  A
C1038      F1043   1.358       .  S
C1039      C1040   1.407       .  A
C1039      F1045   1.358       .  S
C1040      C1041   1.406       .  A
C1041      C1042   1.396       .  A
C1041      F1044   1.358       .  S
C1042      F1046   1.358       .  S
C1049      C1050   1.407       .  A
C1049      C1054   1.403       .  A
C1049      F1067   1.357       .  S
C1050      C1055   1.480       .  S
C1050      C1051   1.404       .  A
C1051      C1052   1.394       .  A
C1051      F1056   1.358       .  S
C1052      C1053   1.404       .  A
C1052      F1068   1.358       .  S
C1053      C1054   1.406       .  A
C1054      F1057   1.358       .  S
C1055      C1058   1.403       .  A
C1055      C1062   1.405       .  A
C1058      C1059   1.394       .  A
C1058      F1063   1.359       .  S
C1059      C1060   1.410       .  A
C1059      F1065   1.358       .  S
C1060      C1061   1.411       .  A
C1061      C1062   1.404       .  A
C1061      F1064   1.357       .  S
C1062      F1066   1.357       .  S
C1069      C1070   1.402       .  A
C1069      C1074   1.394       .  A
C1069      F1087   1.358       .  S
C1070      C1075   1.480       .  S
C1070      C1071   1.404       .  A
C1071      C1072   1.405       .  A
C1071      F1076   1.358       .  S
C1072      C1073   1.413       .  A
C1072      F1088   1.358       .  S
C1073      C1074   1.412       .  A
C1074      F1077   1.358       .  S
C1075      C1078   1.406       .  A
C1075      C1082   1.405       .  A
C1078      C1079   1.403       .  A
C1078      F1083   1.358       .  S
C1079      C1080   1.408       .  A
C1079      F1085   1.358       .  S
C1080      C1081   1.404       .  A
C1081      C1082   1.396       .  A
C1081      F1084   1.358       .  S
C1082      F1086   1.358       .  S
C1089      C1090   1.403       .  A
C1089      C1094   1.400       .  A
C1089      F1107   1.357       .  S
C1090      C1095   1.474       .  S
C1090      C1091   1.402       .  A
C1091      C1092   1.396       .  A
C1091      F1096   1.358       .  S
C1092      C1093   1.409       .  A
C1092      F1108   1.358       .  S
C1093      C1094   1.409       .  A
C1094      F1097   1.358       .  S
C1095      C1098   1.401       .  A
C1095      C1102   1.404       .  A
C1098      C1099   1.395       .  A
C1098      F1103   1.358       .  S
C1099      C1100   1.409       .  A
C1099      F1105   1.358       .  S
C1100      C1101   1.408       .  A
C1101      C1102   1.401       .  A
C1101      F1104   1.357       .  S
C1102      F1106   1.358       .  S
C1109      C1110   1.407       .  A
C1109      C1114   1.398       .  A
C1109      F1127   1.358       .  S
C1110      C1115   1.486       .  S
C1110      C1111   1.408       .  A
C1111      C1112   1.402       .  A
C1111      F1116   1.358       .  S
C1112      C1113   1.404       .  A
C1112      F1128   1.358       .  S
C1113      C1114   1.403       .  A
C1114      F1117   1.358       .  S
C1115      C1118   1.405       .  A
C1115      C1122   1.404       .  A
C1118      C1119   1.403       .  A
C1118      F1123   1.358       .  S
C1119      C1120   1.413       .  A
C1119      F1125   1.357       .  S
C1120      C1121   1.413       .  A
C1121      C1122   1.396       .  A
C1121      F1124   1.358       .  S
C1122      F1126   1.358       .  S
C1129      C1130   1.404       .  A
C1129      C1134   1.400       .  A
C1129      F1147   1.358       .  S
C1130      C1135   1.474       .  S
C1130      C1131   1.404       .  A
C1131      C1132   1.397       .  A
C1131      F1136   1.358       .  S
C1132      C1133   1.403       .  A
C1132      F1148   1.358       .  S
C1133      C1134   1.405       .  A
C1134      F1137   1.358       .  S
C1135      C1138   1.400       .  A
C1135      C1142   1.402       .  A
C1138      C1139   1.394       .  A
C1138      F1143   1.358       .  S
C1139      C1140   1.412       .  A
C1139      F1145   1.358       .  S
C1140      C1141   1.412       .  A
C1141      C1142   1.403       .  A
C1141      F1144   1.357       .  S
C1142      F1146   1.358       .  S
C1149      C1150   1.405       .  A
C1149      C1154   1.403       .  A
C1149      F1167   1.358       .  S
C1150      C1155   1.476       .  S
C1150      C1151   1.402       .  A
C1151      C1152   1.395       .  A
C1151      F1156   1.358       .  S
C1152      C1153   1.406       .  A
C1152      F1168   1.357       .  S
C1153      C1154   1.407       .  A
C1154      F1157   1.357       .  S
C1155      C1158   1.401       .  A
C1155      C1162   1.404       .  A
C1158      C1159   1.393       .  A
C1158      F1163   1.358       .  S
C1159      C1160   1.410       .  A
C1159      F1165   1.358       .  S
C1160      C1161   1.411       .  A
C1161      C1162   1.404       .  A
C1161      F1164   1.358       .  S
C1162      F1166   1.357       .  S
C1169      C1170   1.404       .  A
C1169      C1174   1.401       .  A
C1169      F1187   1.358       .  S
C1170      C1175   1.472       .  S
C1170      C1171   1.402       .  A
C1171      C1172   1.395       .  A
C1171      F1176   1.358       .  S
C1172      C1173   1.404       .  A
C1172      F1188   1.358       .  S
C1173      C1174   1.406       .  A
C1174      F1177   1.358       .  S
C1175      C1178   1.402       .  A
C1175      C1182   1.402       .  A
C1178      C1179   1.400       .  A
C1178      F1183   1.357       .  S
C1179      C1180   1.408       .  A
C1179      F1185   1.358       .  S
C1180      C1181   1.408       .  A
C1181      C1182   1.396       .  A
C1181      F1184   1.358       .  S
C1182      F1186   1.358       .  S
C1189      C1190   1.403       .  A
C1189      C1194   1.399       .  A
C1189      F1207   1.358       .  S
C1190      C1195   1.467       .  S
C1190      C1191   1.400       .  A
C1191      C1192   1.392       .  A
C1191      F1196   1.358       .  S
C1192      C1193   1.408       .  A
C1192      F1208   1.358       .  S
C1193      C1194   1.408       .  A
C1194      F1197   1.358       .  S
C1195      C1198   1.400       .  A
C1195      C1202   1.402       .  A
C1198      C1199   1.396       .  A
C1198      F1203   1.358       .  S
C1199      C1200   1.409       .  A
C1199      F1205   1.358       .  S
C1200      C1201   1.406       .  A
C1201      C1202   1.394       .  A
C1201      F1204   1.358       .  S
C1202      F1206   1.358       .  S
C1209      C1210   1.402       .  A
C1209      C1214   1.400       .  A
C1209      F1227   1.358       .  S
C1210      C1215   1.476       .  S
C1210      C1211   1.403       .  A
C1211      C1212   1.397       .  A
C1211      F1216   1.358       .  S
C1212      C1213   1.411       .  A
C1212      F1228   1.358       .  S
C1213      C1214   1.411       .  A
C1214      F1217   1.358       .  S
C1215      C1218   1.405       .  A
C1215      C1222   1.403       .  A
C1218      C1219   1.400       .  A
C1218      F1223   1.358       .  S
C1219      C1220   1.407       .  A
C1219      F1225   1.358       .  S
C1220      C1221   1.406       .  A
C1221      C1222   1.395       .  A
C1221      F1224   1.358       .  S
C1222      F1226   1.358       .  S
C1229      C1230   1.397       .  A
C1229      C1234   1.393       .  A
C1229      F1247   1.358       .  S
C1230      C1235   1.475       .  S
C1230      C1231   1.398       .  A
C1231      C1232   1.398       .  A
C1231      F1236   1.358       .  S
C1232      C1233   1.427       .  A
C1232      F1248   1.356       .  S
C1233      C1234   1.422       .  A
C1234      F1237   1.357       .  S
C1235      C1238   1.401       .  A
C1235      C1242   1.400       .  A
C1238      C1239   1.398       .  A
C1238      F1243   1.358       .  S
C1239      C1240   1.418       .  A
C1239      F1245   1.355       .  S
C1240      C1241   1.415       .  A
C1241      C1242   1.394       .  A
C1241      F1244   1.358       .  S
C1242      F1246   1.358       .  S
C1249      C1250   1.399       .  A
C1249      C1254   1.392       .  A
C1249      F1267   1.358       .  S
C1250      C1255   1.466       .  S
C1250      C1251   1.398       .  A
C1251      C1252   1.392       .  A
C1251      F1256   1.358       .  S
C1252      C1253   1.416       .  A
C1252      F1268   1.358       .  S
C1253      C1254   1.414       .  A
C1254      F1257   1.356       .  S
C1255      C1258   1.396       .  A
C1255      C1262   1.396       .  A
C1258      C1259   1.392       .  A
C1258      F1263   1.359       .  S
C1259      C1260   1.426       .  A
C1259      F1265   1.356       .  S
C1260      C1261   1.422       .  A
C1261      C1262   1.392       .  A
C1261      F1264   1.356       .  S
C1262      F1266   1.358       .  S
C1269      C1270   1.399       .  A
C1269      C1274   1.399       .  A
C1269      F1287   1.358       .  S
C1270      C1275   1.472       .  S
C1270      C1271   1.395       .  A
C1271      C1272   1.392       .  A
C1271      F1276   1.358       .  S
C1272      C1273   1.422       .  A
C1272      F1288   1.355       .  S
C1273      C1274   1.425       .  A
C1274      F1277   1.356       .  S
C1275      C1278   1.399       .  A
C1275      C1282   1.400       .  A
C1278      C1279   1.398       .  A
C1278      F1283   1.358       .  S
C1279      C1280   1.418       .  A
C1279      F1285   1.356       .  S
C1280      C1281   1.413       .  A
C1281      C1282   1.394       .  A
C1281      F1284   1.358       .  S
C1282      F1286   1.358       .  S
C1289      C1290   1.401       .  A
C1289      C1294   1.400       .  A
C1289      F1307   1.358       .  S
C1290      C1295   1.479       .  S
C1290      C1291   1.399       .  A
C1291      C1292   1.398       .  A
C1291      F1296   1.358       .  S
C1292      C1293   1.418       .  A
C1292      F1308   1.358       .  S
C1293      C1294   1.419       .  A
C1294      F1297   1.354       .  S
C1295      C1298   1.397       .  A
C1295      C1302   1.400       .  A
C1298      C1299   1.396       .  A
C1298      F1303   1.358       .  S
C1299      C1300   1.427       .  A
C1299      F1305   1.356       .  S
C1300      C1301   1.422       .  A
C1301      C1302   1.401       .  A
C1301      F1304   1.356       .  S
C1302      F1306   1.358       .  S
C1309      C1310   1.400       .  A
C1309      C1314   1.398       .  A
C1309      F1327   1.358       .  S
C1310      C1315   1.484       .  S
C1310      C1311   1.400       .  A
C1311      C1312   1.399       .  A
C1311      F1316   1.358       .  S
C1312      C1313   1.423       .  A
C1312      F1328   1.357       .  S
C1313      C1314   1.425       .  A
C1314      F1317   1.355       .  S
C1315      C1318   1.402       .  A
C1315      C1322   1.401       .  A
C1318      C1319   1.401       .  A
C1318      F1323   1.358       .  S
C1319      C1320   1.418       .  A
C1319      F1325   1.353       .  S
C1320      C1321   1.418       .  A
C1321      C1322   1.399       .  A
C1321      F1324   1.358       .  S
C1322      F1326   1.358       .  S
C1329      C1330   1.402       .  A
C1329      C1334   1.399       .  A
C1329      F1347   1.358       .  S
C1330      C1335   1.485       .  S
C1330      C1331   1.400       .  A
C1331      C1332   1.396       .  A
C1331      F1336   1.358       .  S
C1332      C1333   1.426       .  A
C1332      F1348   1.356       .  S
C1333      C1334   1.422       .  A
C1334      F1337   1.357       .  S
C1335      C1338   1.402       .  A
C1335      C1342   1.405       .  A
C1338      C1339   1.395       .  A
C1338      F1343   1.358       .  S
C1339      C1340   1.414       .  A
C1339      F1345   1.358       .  S
C1340      C1341   1.417       .  A
C1341      C1342   1.401       .  A
C1341      F1344   1.354       .  S
C1342      F1346   1.358       .  S
C1349      C1350   1.398       .  A
C1349      C1354   1.393       .  A
C1349      F1367   1.359       .  S
C1350      C1355   1.474       .  S
C1350      C1351   1.399       .  A
C1351      C1352   1.396       .  A
C1351      F1356   1.358       .  S
C1352      C1353   1.423       .  A
C1352      F1368   1.356       .  S
C1353      C1354   1.423       .  A
C1354      F1357   1.356       .  S
C1355      C1358   1.398       .  A
C1355      C1362   1.402       .  A
C1358      C1359   1.394       .  A
C1358      F1363   1.358       .  S
C1359      C1360   1.419       .  A
C1359      F1365   1.359       .  S
C1360      C1361   1.416       .  A
C1361      C1362   1.397       .  A
C1361      F1364   1.351       .  S
C1362      F1366   1.358       .  S
C1369      C1370   1.404       .  A
C1369      C1374   1.400       .  A
C1369      F1387   1.357       .  S
C1370      C1375   1.468       .  S
C1370      C1371   1.402       .  A
C1371      C1372   1.392       .  A
C1371      F1376   1.358       .  S
C1372      C1373   1.404       .  A
C1372      F1388   1.358       .  S
C1373      C1374   1.405       .  A
C1374      F1377   1.358       .  S
C1375      C1378   1.400       .  A
C1375      C1382   1.402       .  A
C1378      C1379   1.391       .  A
C1378      F1383   1.359       .  S
C1379      C1380   1.409       .  A
C1379      F1385   1.358       .  S
C1380      C1381   1.409       .  A
C1381      C1382   1.402       .  A
C1381      F1384   1.357       .  S
C1382      F1386   1.357       .  S
C1389      C1390   1.396       .  A
C1389      C1394   1.395       .  A
C1389      F1407   1.358       .  S
C1390      C1395   1.470       .  S
C1390      C1391   1.399       .  A
C1391      C1392   1.396       .  A
C1391      F1396   1.359       .  S
C1392      C1393   1.418       .  A
C1392      F1408   1.351       .  S
C1393      C1394   1.419       .  A
C1394      F1397   1.359       .  S
C1395      C1398   1.397       .  A
C1395      C1402   1.396       .  A
C1398      C1399   1.397       .  A
C1398      F1403   1.358       .  S
C1399      C1400   1.422       .  A
C1399      F1405   1.357       .  S
C1400      C1401   1.425       .  A
C1401      C1402   1.393       .  A
C1401      F1404   1.356       .  S
C1402      F1406   1.359       .  S
C1409      C1410   1.407       .  A
C1409      C1414   1.399       .  A
C1409      F1427   1.358       .  S
C1410      C1415   1.481       .  S
C1410      C1411   1.405       .  A
C1411      C1412   1.400       .  A
C1411      F1416   1.358       .  S
C1412      C1413   1.407       .  A
C1412      F1428   1.358       .  S
C1413      C1414   1.405       .  A
C1414      F1417   1.358       .  S
C1415      C1418   1.401       .  A
C1415      C1422   1.405       .  A
C1418      C1419   1.394       .  A
C1418      F1423   1.358       .  S
C1419      C1420   1.413       .  A
C1419      F1425   1.358       .  S
C1420      C1421   1.412       .  A
C1421      C1422   1.404       .  A
C1421      F1424   1.358       .  S
C1422      F1426   1.358       .  S
C1429      C1430   1.402       .  A
C1429      C1434   1.398       .  A
C1429      F1447   1.358       .  S
C1430      C1435   1.484       .  S
C1430      C1431   1.402       .  A
C1431      C1432   1.398       .  A
C1431      F1436   1.358       .  S
C1432      C1433   1.417       .  A
C1432      F1448   1.359       .  S
C1433      C1434   1.418       .  A
C1434      F1437   1.351       .  S
C1435      C1438   1.402       .  A
C1435      C1442   1.401       .  A
C1438      C1439   1.397       .  A
C1438      F1443   1.358       .  S
C1439      C1440   1.423       .  A
C1439      F1445   1.356       .  S
C1440      C1441   1.421       .  A
C1441      C1442   1.398       .  A
C1441      F1444   1.356       .  S
C1442      F1446   1.358       .  S
C1449      C1450   1.403       .  A
C1449      C1454   1.400       .  A
C1449      F1467   1.358       .  S
C1450      C1455   1.471       .  S
C1450      C1451   1.402       .  A
C1451      C1452   1.395       .  A
C1451      F1456   1.358       .  S
C1452      C1453   1.406       .  A
C1452      F1468   1.358       .  S
C1453      C1454   1.408       .  A
C1454      F1457   1.358       .  S
C1455      C1458   1.402       .  A
C1455      C1462   1.403       .  A
C1458      C1459   1.393       .  A
C1458      F1463   1.358       .  S
C1459      C1460   1.405       .  A
C1459      F1465   1.358       .  S
C1460      C1461   1.410       .  A
C1461      C1462   1.403       .  A
C1461      F1464   1.358       .  S
C1462      F1466   1.358       .  S
C1469      C1470   1.399       .  A
C1469      C1474   1.395       .  A
C1469      F1487   1.358       .  S
C1470      C1475   1.474       .  S
C1470      C1471   1.400       .  A
C1471      C1472   1.395       .  A
C1471      F1476   1.359       .  S
C1472      C1473   1.418       .  A
C1472      F1488   1.354       .  S
C1473      C1474   1.415       .  A
C1474      F1477   1.358       .  S
C1475      C1478   1.398       .  A
C1475      C1482   1.397       .  A
C1478      C1479   1.396       .  A
C1478      F1483   1.358       .  S
C1479      C1480   1.421       .  A
C1479      F1485   1.357       .  S
C1480      C1481   1.427       .  A
C1481      C1482   1.394       .  A
C1481      F1484   1.356       .  S
C1482      F1486   1.359       .  S
C1489      C1490   1.401       .  A
C1489      C1494   1.394       .  A
C1489      F1507   1.358       .  S
C1490      C1495   1.471       .  S
C1490      C1491   1.402       .  A
C1491      C1492   1.400       .  A
C1491      F1496   1.358       .  S
C1492      C1493   1.410       .  A
C1492      F1508   1.358       .  S
C1493      C1494   1.409       .  A
C1494      F1497   1.358       .  S
C1495      C1498   1.402       .  A
C1495      C1502   1.404       .  A
C1498      C1499   1.394       .  A
C1498      F1503   1.358       .  S
C1499      C1500   1.404       .  A
C1499      F1505   1.358       .  S
C1500      C1501   1.404       .  A
C1501      C1502   1.399       .  A
C1501      F1504   1.358       .  S
C1502      F1506   1.358       .  S
C1509      C1510   1.398       .  A
C1509      C1514   1.396       .  A
C1509      F1527   1.358       .  S
C1510      C1515   1.468       .  S
C1510      C1511   1.394       .  A
C1511      C1512   1.392       .  A
C1511      F1516   1.358       .  S
C1512      C1513   1.425       .  A
C1512      F1528   1.356       .  S
C1513      C1514   1.422       .  A
C1514      F1517   1.355       .  S
C1515      C1518   1.398       .  A
C1515      C1522   1.397       .  A
C1518      C1519   1.395       .  A
C1518      F1523   1.359       .  S
C1519      C1520   1.417       .  A
C1519      F1525   1.351       .  S
C1520      C1521   1.418       .  A
C1521      C1522   1.394       .  A
C1521      F1524   1.359       .  S
C1522      F1526   1.358       .  S
C1529      C1530   1.403       .  A
C1529      C1534   1.401       .  A
C1529      F1547   1.357       .  S
C1530      C1535   1.476       .  S
C1530      C1531   1.403       .  A
C1531      C1532   1.397       .  A
C1531      F1536   1.358       .  S
C1532      C1533   1.409       .  A
C1532      F1548   1.358       .  S
C1533      C1534   1.408       .  A
C1534      F1537   1.358       .  S
C1535      C1538   1.403       .  A
C1535      C1542   1.403       .  A
C1538      C1539   1.396       .  A
C1538      F1543   1.358       .  S
C1539      C1540   1.407       .  A
C1539      F1545   1.358       .  S
C1540      C1541   1.409       .  A
C1541      C1542   1.401       .  A
C1541      F1544   1.357       .  S
C1542      F1546   1.357       .  S
C1549      C1550   1.402       .  A
C1549      C1554   1.394       .  A
C1549      F1567   1.358       .  S
C1550      C1555   1.470       .  S
C1550      C1551   1.403       .  A
C1551      C1552   1.399       .  A
C1551      F1556   1.358       .  S
C1552      C1553   1.406       .  A
C1552      F1568   1.358       .  S
C1553      C1554   1.405       .  A
C1554      F1557   1.358       .  S
C1555      C1558   1.401       .  A
C1555      C1562   1.401       .  A
C1558      C1559   1.394       .  A
C1558      F1563   1.358       .  S
C1559      C1560   1.409       .  A
C1559      F1565   1.358       .  S
C1560      C1561   1.410       .  A
C1561      C1562   1.400       .  A
C1561      F1564   1.358       .  S
C1562      F1566   1.358       .  S
C1569      C1570   1.401       .  A
C1569      C1574   1.393       .  A
C1569      F1587   1.358       .  S
C1570      C1575   1.473       .  S
C1570      C1571   1.402       .  A
C1571      C1572   1.401       .  A
C1571      F1576   1.358       .  S
C1572      C1573   1.412       .  A
C1572      F1588   1.358       .  S
C1573      C1574   1.411       .  A
C1574      F1577   1.358       .  S
C1575      C1578   1.403       .  A
C1575      C1582   1.403       .  A
C1578      C1579   1.399       .  A
C1578      F1583   1.358       .  S
C1579      C1580   1.407       .  A
C1579      F1585   1.358       .  S
C1580      C1581   1.404       .  A
C1581      C1582   1.395       .  A
C1581      F1584   1.358       .  S
C1582      F1586   1.358       .  S
C1589      C1590   1.404       .  A
C1589      C1594   1.403       .  A
C1589      F1607   1.357       .  S
C1590      C1595   1.475       .  S
C1590      C1591   1.401       .  A
C1591      C1592   1.392       .  A
C1591      F1596   1.359       .  S
C1592      C1593   1.411       .  A
C1592      F1608   1.358       .  S
C1593      C1594   1.411       .  A
C1594      F1597   1.357       .  S
C1595      C1598   1.404       .  A
C1595      C1602   1.405       .  A
C1598      C1599   1.395       .  A
C1598      F1603   1.358       .  S
C1599      C1600   1.403       .  A
C1599      F1605   1.358       .  S
C1600      C1601   1.405       .  A
C1601      C1602   1.401       .  A
C1601      F1604   1.358       .  S
C1602      F1606   1.358       .  S
C1609      C1610   1.403       .  A
C1609      C1614   1.400       .  A
C1609      F1627   1.358       .  S
C1610      C1615   1.469       .  S
C1610      C1611   1.402       .  A
C1611      C1612   1.395       .  A
C1611      F1616   1.358       .  S
C1612      C1613   1.405       .  A
C1612      F1628   1.358       .  S
C1613      C1614   1.406       .  A
C1614      F1617   1.357       .  S
C1615      C1618   1.403       .  A
C1615      C1622   1.402       .  A
C1618      C1619   1.400       .  A
C1618      F1623   1.357       .  S
C1619      C1620   1.408       .  A
C1619      F1625   1.358       .  S
C1620      C1621   1.405       .  A
C1621      C1622   1.393       .  A
C1621      F1624   1.358       .  S
C1622      F1626   1.358       .  S
C1629      C1630   1.402       .  A
C1629      C1634   1.402       .  A
C1629      F1647   1.358       .  S
C1630      C1635   1.473       .  S
C1630      C1631   1.402       .  A
C1631      C1632   1.392       .  A
C1631      F1636   1.359       .  S
C1632      C1633   1.409       .  A
C1632      F1648   1.358       .  S
C1633      C1634   1.412       .  A
C1634      F1637   1.358       .  S
C1635      C1638   1.404       .  A
C1635      C1642   1.404       .  A
C1638      C1639   1.400       .  A
C1638      F1643   1.358       .  S
C1639      C1640   1.406       .  A
C1639      F1645   1.358       .  S
C1640      C1641   1.403       .  A
C1641      C1642   1.393       .  A
C1641      F1644   1.358       .  S
C1642      F1646   1.358       .  S
C1649      C1650   1.402       .  A
C1649      C1654   1.396       .  A
C1649      F1667   1.358       .  S
C1650      C1655   1.474       .  S
C1650      C1651   1.403       .  A
C1651      C1652   1.402       .  A
C1651      F1656   1.358       .  S
C1652      C1653   1.409       .  A
C1652      F1668   1.358       .  S
C1653      C1654   1.406       .  A
C1654      F1657   1.357       .  S
C1655      C1658   1.402       .  A
C1655      C1662   1.404       .  A
C1658      C1659   1.395       .  A
C1658      F1663   1.358       .  S
C1659      C1660   1.406       .  A
C1659      F1665   1.358       .  S
C1660      C1661   1.408       .  A
C1661      C1662   1.403       .  A
C1661      F1664   1.358       .  S
C1662      F1666   1.358       .  S
C1669      C1670   1.405       .  A
C1669      C1674   1.402       .  A
C1669      F1687   1.358       .  S
C1670      C1675   1.476       .  S
C1670      C1671   1.401       .  A
C1671      C1672   1.392       .  A
C1671      F1676   1.358       .  S
C1672      C1673   1.411       .  A
C1672      F1688   1.358       .  S
C1673      C1674   1.410       .  A
C1674      F1677   1.358       .  S
C1675      C1678   1.405       .  A
C1675      C1682   1.404       .  A
C1678      C1679   1.396       .  A
C1678      F1683   1.358       .  S
C1679      C1680   1.404       .  A
C1679      F1685   1.358       .  S
C1680      C1681   1.407       .  A
C1681      C1682   1.399       .  A
C1681      F1684   1.358       .  S
C1682      F1686   1.358       .  S
C1689      C1690   1.402       .  A
C1689      C1694   1.394       .  A
C1689      F1707   1.358       .  S
C1690      C1695   1.470       .  S
C1690      C1691   1.402       .  A
C1691      C1692   1.399       .  A
C1691      F1696   1.358       .  S
C1692      C1693   1.408       .  A
C1692      F1708   1.358       .  S
C1693      C1694   1.405       .  A
C1694      F1697   1.356       .  S
C1695      C1698   1.399       .  A
C1695      C1702   1.403       .  A
C1698      C1699   1.391       .  A
C1698      F1703   1.358       .  S
C1699      C1700   1.411       .  A
C1699      F1705   1.358       .  S
C1700      C1701   1.410       .  A
C1701      C1702   1.401       .  A
C1701      F1704   1.357       .  S
C1702      F1706   1.358       .  S
C1709      C1710   1.403       .  A
C1709      C1714   1.396       .  A
C1709      F1727   1.358       .  S
C1710      C1715   1.475       .  S
C1710      C1711   1.402       .  A
C1711      C1712   1.400       .  A
C1711      F1716   1.358       .  S
C1712      C1713   1.410       .  A
C1712      F1728   1.358       .  S
C1713      C1714   1.409       .  A
C1714      F1717   1.358       .  S
C1715      C1718   1.405       .  A
C1715      C1722   1.405       .  A
C1718      C1719   1.396       .  A
C1718      F1723   1.358       .  S
C1719      C1720   1.401       .  A
C1719      F1725   1.357       .  S
C1720      C1721   1.404       .  A
C1721      C1722   1.400       .  A
C1721      F1724   1.358       .  S
C1722      F1726   1.358       .  S
C1729      C1730   1.403       .  A
C1729      C1734   1.402       .  A
C1729      F1747   1.357       .  S
C1730      C1735   1.475       .  S
C1730      C1731   1.402       .  A
C1731      C1732   1.394       .  A
C1731      F1736   1.358       .  S
C1732      C1733   1.410       .  A
C1732      F1748   1.358       .  S
C1733      C1734   1.410       .  A
C1734      F1737   1.357       .  S
C1735      C1738   1.402       .  A
C1735      C1742   1.402       .  A
C1738      C1739   1.394       .  A
C1738      F1743   1.358       .  S
C1739      C1740   1.407       .  A
C1739      F1745   1.355       .  S
C1740      C1741   1.411       .  A
C1741      C1742   1.402       .  A
C1741      F1744   1.357       .  S
C1742      F1746   1.357       .  S
C1749      C1750   1.400       .  A
C1749      C1754   1.399       .  A
C1749      F1767   1.358       .  S
C1750      C1755   1.483       .  S
C1750      C1751   1.401       .  A
C1751      C1752   1.397       .  A
C1751      F1756   1.358       .  S
C1752      C1753   1.420       .  A
C1752      F1768   1.356       .  S
C1753      C1754   1.426       .  A
C1754      F1757   1.356       .  S
C1755      C1758   1.403       .  A
C1755      C1762   1.401       .  A
C1758      C1759   1.401       .  A
C1758      F1763   1.358       .  S
C1759      C1760   1.418       .  A
C1759      F1765   1.353       .  S
C1760      C1761   1.416       .  A
C1761      C1762   1.395       .  A
C1761      F1764   1.359       .  S
C1762      F1766   1.358       .  S
C1769      C1770   1.403       .  A
C1769      C1774   1.400       .  A
C1769      F1787   1.358       .  S
C1770      C1775   1.476       .  S
C1770      C1771   1.403       .  A
C1771      C1772   1.397       .  A
C1771      F1776   1.358       .  S
C1772      C1773   1.408       .  A
C1772      F1788   1.358       .  S
C1773      C1774   1.408       .  A
C1774      F1777   1.357       .  S
C1775      C1778   1.403       .  A
C1775      C1782   1.403       .  A
C1778      C1779   1.400       .  A
C1778      F1783   1.358       .  S
C1779      C1780   1.409       .  A
C1779      F1785   1.358       .  S
C1780      C1781   1.409       .  A
C1781      C1782   1.398       .  A
C1781      F1784   1.358       .  S
C1782      F1786   1.358       .  S
C1789      C1790   1.404       .  A
C1789      C1794   1.394       .  A
C1789      F1807   1.358       .  S
C1790      C1795   1.479       .  S
C1790      C1791   1.407       .  A
C1791      C1792   1.401       .  A
C1791      F1796   1.358       .  S
C1792      C1793   1.405       .  A
C1792      F1808   1.358       .  S
C1793      C1794   1.405       .  A
C1794      F1797   1.358       .  S
C1795      C1798   1.405       .  A
C1795      C1802   1.401       .  A
C1798      C1799   1.396       .  A
C1798      F1803   1.359       .  S
C1799      C1800   1.411       .  A
C1799      F1805   1.358       .  S
C1800      C1801   1.413       .  A
C1801      C1802   1.398       .  A
C1801      F1804   1.357       .  S
C1802      F1806   1.358       .  S
C1809      C1810   1.403       .  A
C1809      C1814   1.402       .  A
C1809      F1827   1.357       .  S
C1810      C1815   1.474       .  S
C1810      C1811   1.402       .  A
C1811      C1812   1.393       .  A
C1811      F1816   1.358       .  S
C1812      C1813   1.407       .  A
C1812      F1828   1.358       .  S
C1813      C1814   1.409       .  A
C1814      F1817   1.358       .  S
C1815      C1818   1.404       .  A
C1815      C1822   1.402       .  A
C1818      C1819   1.403       .  A
C1818      F1823   1.358       .  S
C1819      C1820   1.409       .  A
C1819      F1825   1.358       .  S
C1820      C1821   1.406       .  A
C1821      C1822   1.394       .  A
C1821      F1824   1.358       .  S
C1822      F1826   1.358       .  S
C1829      C1830   1.402       .  A
C1829      C1834   1.397       .  A
C1829      F1847   1.358       .  S
C1830      C1835   1.481       .  S
C1830      C1831   1.402       .  A
C1831      C1832   1.397       .  A
C1831      F1836   1.358       .  S
C1832      C1833   1.418       .  A
C1832      F1848   1.353       .  S
C1833      C1834   1.416       .  A
C1834      F1837   1.358       .  S
C1835      C1838   1.400       .  A
C1835      C1842   1.400       .  A
C1838      C1839   1.396       .  A
C1838      F1843   1.359       .  S
C1839      C1840   1.426       .  A
C1839      F1845   1.356       .  S
C1840      C1841   1.421       .  A
C1841      C1842   1.396       .  A
C1841      F1844   1.356       .  S
C1842      F1846   1.358       .  S
C1849      C1850   1.403       .  A
C1849      C1854   1.400       .  A
C1849      F1867   1.358       .  S
C1850      C1855   1.476       .  S
C1850      C1851   1.402       .  A
C1851      C1852   1.394       .  A
C1851      F1856   1.358       .  S
C1852      C1853   1.410       .  A
C1852      F1868   1.358       .  S
C1853      C1854   1.410       .  A
C1854      F1857   1.358       .  S
C1855      C1858   1.404       .  A
C1855      C1862   1.403       .  A
C1858      C1859   1.400       .  A
C1858      F1863   1.358       .  S
C1859      C1860   1.408       .  A
C1859      F1865   1.358       .  S
C1860      C1861   1.407       .  A
C1861      C1862   1.395       .  A
C1861      F1864   1.357       .  S
C1862      F1866   1.358       .  S
C1869      C1870   1.402       .  A
C1869      C1874   1.396       .  A
C1869      F1887   1.358       .  S
C1870      C1875   1.472       .  S
C1870      C1871   1.404       .  A
C1871      C1872   1.400       .  A
C1871      F1876   1.358       .  S
C1872      C1873   1.405       .  A
C1872      F1888   1.358       .  S
C1873      C1874   1.404       .  A
C1874      F1877   1.358       .  S
C1875      C1878   1.401       .  A
C1875      C1882   1.401       .  A
C1878      C1879   1.396       .  A
C1878      F1883   1.358       .  S
C1879      C1880   1.410       .  A
C1879      F1885   1.358       .  S
C1880      C1881   1.412       .  A
C1881      C1882   1.401       .  A
C1881      F1884   1.358       .  S
C1882      F1886   1.357       .  S
C1889      C1890   1.404       .  A
C1889      C1894   1.402       .  A
C1889      F1907   1.358       .  S
C1890      C1895   1.474       .  S
C1890      C1891   1.403       .  A
C1891      C1892   1.394       .  A
C1891      F1896   1.358       .  S
C1892      C1893   1.404       .  A
C1892      F1908   1.358       .  S
C1893      C1894   1.408       .  A
C1894      F1897   1.358       .  S
C1895      C1898   1.404       .  A
C1895      C1902   1.401       .  A
C1898      C1899   1.404       .  A
C1898      F1903   1.357       .  S
C1899      C1900   1.409       .  A
C1899      F1905   1.357       .  S
C1900      C1901   1.410       .  A
C1901      C1902   1.392       .  A
C1901      F1904   1.359       .  S
C1902      F1906   1.359       .  S
C1909      C1910   1.402       .  A
C1909      C1914   1.399       .  A
C1909      F1927   1.358       .  S
C1910      C1915   1.481       .  S
C1910      C1911   1.400       .  A
C1911      C1912   1.395       .  A
C1911      F1916   1.358       .  S
C1912      C1913   1.417       .  A
C1912      F1928   1.359       .  S
C1913      C1914   1.418       .  A
C1914      F1917   1.351       .  S
C1915      C1918   1.398       .  A
C1915      C1922   1.401       .  A
C1918      C1919   1.395       .  A
C1918      F1923   1.358       .  S
C1919      C1920   1.424       .  A
C1919      F1925   1.356       .  S
C1920      C1921   1.424       .  A
C1921      C1922   1.399       .  A
C1921      F1924   1.355       .  S
C1922      F1926   1.358       .  S
C1929      C1930   1.402       .  A
C1929      C1934   1.394       .  A
C1929      F1947   1.358       .  S
C1930      C1935   1.466       .  S
C1930      C1931   1.402       .  A
C1931      C1932   1.396       .  A
C1931      F1936   1.358       .  S
C1932      C1933   1.406       .  A
C1932      F1948   1.358       .  S
C1933      C1934   1.405       .  A
C1934      F1937   1.357       .  S
C1935      C1938   1.401       .  A
C1935      C1942   1.401       .  A
C1938      C1939   1.393       .  A
C1938      F1943   1.358       .  S
C1939      C1940   1.407       .  A
C1939      F1945   1.358       .  S
C1940      C1941   1.409       .  A
C1941      C1942   1.398       .  A
C1941      F1944   1.358       .  S
C1942      F1946   1.358       .  S
C1949      C1950   1.402       .  A
C1949      C1954   1.394       .  A
C1949      F1967   1.358       .  S
C1950      C1955   1.472       .  S
C1950      C1951   1.405       .  A
C1951      C1952   1.402       .  A
C1951      F1956   1.358       .  S
C1952      C1953   1.405       .  A
C1952      F1968   1.358       .  S
C1953      C1954   1.404       .  A
C1954      F1957   1.358       .  S
C1955      C1958   1.402       .  A
C1955      C1962   1.401       .  A
C1958      C1959   1.396       .  A
C1958      F1963   1.358       .  S
C1959      C1960   1.408       .  A
C1959      F1965   1.358       .  S
C1960      C1961   1.411       .  A
C1961      C1962   1.400       .  A
C1961      F1964   1.358       .  S
C1962      F1966   1.358       .  S
C1969      C1970   1.407       .  A
C1969      C1974   1.400       .  A
C1969      F1987   1.358       .  S
C1970      C1975   1.481       .  S
C1970      C1971   1.406       .  A
C1971      C1972   1.396       .  A
C1971      F1976   1.358       .  S
C1972      C1973   1.402       .  A
C1972      F1988   1.358       .  S
C1973      C1974   1.404       .  A
C1974      F1977   1.358       .  S
C1975      C1978   1.404       .  A
C1975      C1982   1.403       .  A
C1978      C1979   1.403       .  A
C1978      F1983   1.358       .  S
C1979      C1980   1.413       .  A
C1979      F1985   1.357       .  S
C1980      C1981   1.412       .  A
C1981      C1982   1.394       .  A
C1981      F1984   1.358       .  S
C1982      F1986   1.359       .  S
C1989      C1990   1.394       .  A
C1989      C1994   1.391       .  A
C1989      F2007   1.358       .  S
C1990      C1995   1.466       .  S
C1990      C1991   1.397       .  A
C1991      C1992   1.397       .  A
C1991      F1996   1.358       .  S
C1992      C1993   1.425       .  A
C1992      F2008   1.356       .  S
C1993      C1994   1.423       .  A
C1994      F1997   1.356       .  S
C1995      C1998   1.397       .  A
C1995      C2002   1.399       .  A
C1998      C1999   1.395       .  A
C1998      F2003   1.358       .  S
C1999      C2000   1.418       .  A
C1999      F2005   1.357       .  S
C2000      C2001   1.413       .  A
C2001      C2002   1.394       .  A
C2001      F2004   1.357       .  S
C2002      F2006   1.358       .  S
C2009      C2010   1.406       .  A
C2009      C2014   1.398       .  A
C2009      F2027   1.358       .  S
C2010      C2015   1.482       .  S
C2010      C2011   1.408       .  A
C2011      C2012   1.399       .  A
C2011      F2016   1.358       .  S
C2012      C2013   1.401       .  A
C2012      F2028   1.357       .  S
C2013      C2014   1.403       .  A
C2014      F2017   1.358       .  S
C2015      C2018   1.405       .  A
C2015      C2022   1.405       .  A
C2018      C2019   1.400       .  A
C2018      F2023   1.358       .  S
C2019      C2020   1.409       .  A
C2019      F2025   1.358       .  S
C2020      C2021   1.409       .  A
C2021      C2022   1.396       .  A
C2021      F2024   1.358       .  S
C2022      F2026   1.358       .  S
C2029      C2030   1.404       .  A
C2029      C2034   1.396       .  A
C2029      F2047   1.358       .  S
C2030      C2035   1.478       .  S
C2030      C2031   1.403       .  A
C2031      C2032   1.400       .  A
C2031      F2036   1.358       .  S
C2032      C2033   1.410       .  A
C2032      F2048   1.357       .  S
C2033      C2034   1.407       .  A
C2034      F2037   1.357       .  S
C2035      C2038   1.403       .  A
C2035      C2042   1.402       .  A
C2038      C2039   1.402       .  A
C2038      F2043   1.357       .  S
C2039      C2040   1.412       .  A
C2039      F2045   1.357       .  S
C2040      C2041   1.412       .  A
C2041      C2042   1.396       .  A
C2041      F2044   1.358       .  S
C2042      F2046   1.359       .  S
C2049      C2050   1.406       .  A
C2049      C2054   1.401       .  A
C2049      F2067   1.358       .  S
C2050      C2055   1.479       .  S
C2050      C2051   1.403       .  A
C2051      C2052   1.396       .  A
C2051      F2056   1.358       .  S
C2052      C2053   1.407       .  A
C2052      F2068   1.358       .  S
C2053      C2054   1.407       .  A
C2054      F2057   1.358       .  S
C2055      C2058   1.404       .  A
C2055      C2062   1.402       .  A
C2058      C2059   1.399       .  A
C2058      F2063   1.358       .  S
C2059      C2060   1.411       .  A
C2059      F2065   1.358       .  S
C2060      C2061   1.412       .  A
C2061      C2062   1.399       .  A
C2061      F2064   1.358       .  S
C2062      F2066   1.358       .  S
C2069      C2070   1.400       .  A
C2069      C2074   1.399       .  A
C2069      F2087   1.358       .  S
C2070      C2075   1.480       .  S
C2070      C2071   1.398       .  A
C2071      C2072   1.398       .  A
C2071      F2076   1.358       .  S
C2072      C2073   1.425       .  A
C2072      F2088   1.356       .  S
C2073      C2074   1.421       .  A
C2074      F2077   1.357       .  S
C2075      C2078   1.403       .  A
C2075      C2082   1.399       .  A
C2078      C2079   1.401       .  A
C2078      F2083   1.358       .  S
C2079      C2080   1.417       .  A
C2079      F2085   1.355       .  S
C2080      C2081   1.417       .  A
C2081      C2082   1.397       .  A
C2081      F2084   1.358       .  S
C2082      F2086   1.358       .  S
C2089      C2090   1.402       .  A
C2089      C2094   1.394       .  A
C2089      F2107   1.358       .  S
C2090      C2095   1.471       .  S
C2090      C2091   1.404       .  A
C2091      C2092   1.399       .  A
C2091      F2096   1.358       .  S
C2092      C2093   1.407       .  A
C2092      F2108   1.358       .  S
C2093      C2094   1.404       .  A
C2094      F2097   1.358       .  S
C2095      C2098   1.404       .  A
C2095      C2102   1.402       .  A
C2098      C2099   1.399       .  A
C2098      F2103   1.358       .  S
C2099      C2100   1.404       .  A
C2099      F2105   1.358       .  S
C2100      C2101   1.405       .  A
C2101      C2102   1.395       .  A
C2101      F2104   1.358       .  S
C2102      F2106   1.358       .  S
C2109      C2110   1.402       .  A
C2109      C2114   1.396       .  A
C2109      F2127   1.358       .  S
C2110      C2115   1.475       .  S
C2110      C2111   1.406       .  A
C2111      C2112   1.403       .  A
C2111      F2116   1.357       .  S
C2112      C2113   1.404       .  A
C2112      F2128   1.358       .  S
C2113      C2114   1.404       .  A
C2114      F2117   1.357       .  S
C2115      C2118   1.402       .  A
C2115      C2122   1.401       .  A
C2118      C2119   1.402       .  A
C2118      F2123   1.358       .  S
C2119      C2120   1.411       .  A
C2119      F2125   1.358       .  S
C2120      C2121   1.411       .  A
C2121      C2122   1.397       .  A
C2121      F2124   1.358       .  S
C2122      F2126   1.358       .  S
C2129      C2130   1.408       .  A
C2129      C2134   1.403       .  A
C2129      F2147   1.358       .  S
C2130      C2135   1.482       .  S
C2130      C2131   1.406       .  A
C2131      C2132   1.393       .  A
C2131      F2136   1.358       .  S
C2132      C2133   1.403       .  A
C2132      F2148   1.358       .  S
C2133      C2134   1.405       .  A
C2134      F2137   1.358       .  S
C2135      C2138   1.404       .  A
C2135      C2142   1.404       .  A
C2138      C2139   1.394       .  A
C2138      F2143   1.359       .  S
C2139      C2140   1.412       .  A
C2139      F2145   1.358       .  S
C2140      C2141   1.412       .  A
C2141      C2142   1.402       .  A
C2141      F2144   1.357       .  S
C2142      F2146   1.357       .  S
C2149      C2150   1.400       .  A
C2149      C2154   1.398       .  A
C2149      F2167   1.358       .  S
C2150      C2155   1.475       .  S
C2150      C2151   1.400       .  A
C2151      C2152   1.398       .  A
C2151      F2156   1.358       .  S
C2152      C2153   1.416       .  A
C2152      F2168   1.356       .  S
C2153      C2154   1.419       .  A
C2154      F2157   1.357       .  S
C2155      C2158   1.399       .  A
C2155      C2162   1.397       .  A
C2158      C2159   1.397       .  A
C2158      F2163   1.358       .  S
C2159      C2160   1.420       .  A
C2159      F2165   1.357       .  S
C2160      C2161   1.427       .  A
C2161      C2162   1.397       .  A
C2161      F2164   1.356       .  S
C2162      F2166   1.358       .  S
C2169      C2170   1.402       .  A
C2169      C2174   1.395       .  A
C2169      F2187   1.358       .  S
C2170      C2175   1.473       .  S
C2170      C2171   1.402       .  A
C2171      C2172   1.402       .  A
C2171      F2176   1.358       .  S
C2172      C2173   1.410       .  A
C2172      F2188   1.358       .  S
C2173      C2174   1.407       .  A
C2174      F2177   1.358       .  S
C2175      C2178   1.403       .  A
C2175      C2182   1.402       .  A
C2178      C2179   1.402       .  A
C2178      F2183   1.358       .  S
C2179      C2180   1.409       .  A
C2179      F2185   1.358       .  S
C2180      C2181   1.405       .  A
C2181      C2182   1.395       .  A
C2181      F2184   1.358       .  S
C2182      F2186   1.358       .  S
C2189      C2190   1.405       .  A
C2189      C2194   1.402       .  A
C2189      F2207   1.358       .  S
C2190      C2195   1.482       .  S
C2190      C2191   1.405       .  A
C2191      C2192   1.397       .  A
C2191      F2196   1.358       .  S
C2192      C2193   1.407       .  A
C2192      F2208   1.358       .  S
C2193      C2194   1.409       .  A
C2194      F2197   1.357       .  S
C2195      C2198   1.403       .  A
C2195      C2202   1.405       .  A
C2198      C2199   1.395       .  A
C2198      F2203   1.358       .  S
C2199      C2200   1.411       .  A
C2199      F2205   1.358       .  S
C2200      C2201   1.411       .  A
C2201      C2202   1.403       .  A
C2201      F2204   1.357       .  S
C2202      F2206   1.358       .  S
C2209      C2210   1.404       .  A
C2209      C2214   1.392       .  A
C2209      F2227   1.358       .  S
C2210      C2215   1.474       .  S
C2210      C2211   1.405       .  A
C2211      C2212   1.401       .  A
C2211      F2216   1.358       .  S
C2212      C2213   1.405       .  A
C2212      F2228   1.358       .  S
C2213      C2214   1.402       .  A
C2214      F2217   1.358       .  S
C2215      C2218   1.402       .  A
C2215      C2222   1.401       .  A
C2218      C2219   1.403       .  A
C2218      F2223   1.358       .  S
C2219      C2220   1.414       .  A
C2219      F2225   1.358       .  S
C2220      C2221   1.412       .  A
C2221      C2222   1.391       .  A
C2221      F2224   1.358       .  S
C2222      F2226   1.359       .  S
C2229      C2230   1.400       .  A
C2229      C2234   1.400       .  A
C2229      F2247   1.358       .  S
C2230      C2235   1.470       .  S
C2230      C2231   1.396       .  A
C2231      C2232   1.392       .  A
C2231      F2236   1.358       .  S
C2232      C2233   1.418       .  A
C2232      F2248   1.359       .  S
C2233      C2234   1.418       .  A
C2234      F2237   1.351       .  S
C2235      C2238   1.397       .  A
C2235      C2242   1.396       .  A
C2238      C2239   1.394       .  A
C2238      F2243   1.358       .  S
C2239      C2240   1.421       .  A
C2239      F2245   1.357       .  S
C2240      C2241   1.426       .  A
C2241      C2242   1.396       .  A
C2241      F2244   1.356       .  S
C2242      F2246   1.358       .  S
C2249      C2250   1.402       .  A
C2249      C2254   1.391       .  A
C2249      F2267   1.358       .  S
C2250      C2255   1.468       .  S
C2250      C2251   1.403       .  A
C2251      C2252   1.399       .  A
C2251      F2256   1.358       .  S
C2252      C2253   1.407       .  A
C2252      F2268   1.357       .  S
C2253      C2254   1.405       .  A
C2254      F2257   1.358       .  S
C2255      C2258   1.403       .  A
C2255      C2262   1.400       .  A
C2258      C2259   1.391       .  A
C2258      F2263   1.359       .  S
C2259      C2260   1.407       .  A
C2259      F2265   1.358       .  S
C2260      C2261   1.411       .  A
C2261      C2262   1.398       .  A
C2261      F2264   1.358       .  S
C2262      F2266   1.358       .  S
C2269      C2270   1.406       .  A
C2269      C2274   1.399       .  A
C2269      F2287   1.358       .  S
C2270      C2275   1.481       .  S
C2270      C2271   1.406       .  A
C2271      C2272   1.398       .  A
C2271      F2276   1.358       .  S
C2272      C2273   1.405       .  A
C2272      F2288   1.358       .  S
C2273      C2274   1.405       .  A
C2274      F2277   1.358       .  S
C2275      C2278   1.404       .  A
C2275      C2282   1.403       .  A
C2278      C2279   1.399       .  A
C2278      F2283   1.358       .  S
C2279      C2280   1.413       .  A
C2279      F2285   1.358       .  S
C2280      C2281   1.412       .  A
C2281      C2282   1.399       .  A
C2281      F2284   1.357       .  S
C2282      F2286   1.358       .  S
C2289      C2290   1.403       .  A
C2289      C2294   1.395       .  A
C2289      F2307   1.358       .  S
C2290      C2295   1.478       .  S
C2290      C2291   1.405       .  A
C2291      C2292   1.401       .  A
C2291      F2296   1.357       .  S
C2292      C2293   1.406       .  A
C2292      F2308   1.358       .  S
C2293      C2294   1.407       .  A
C2294      F2297   1.358       .  S
C2295      C2298   1.403       .  A
C2295      C2302   1.404       .  A
C2298      C2299   1.396       .  A
C2298      F2303   1.358       .  S
C2299      C2300   1.409       .  A
C2299      F2305   1.358       .  S
C2300      C2301   1.410       .  A
C2301      C2302   1.402       .  A
C2301      F2304   1.358       .  S
C2302      F2306   1.358       .  S
C2309      C2310   1.399       .  A
C2309      C2314   1.398       .  A
C2309      F2327   1.358       .  S
C2310      C2315   1.473       .  S
C2310      C2311   1.395       .  A
C2311      C2312   1.393       .  A
C2311      F2316   1.358       .  S
C2312      C2313   1.424       .  A
C2312      F2328   1.356       .  S
C2313      C2314   1.424       .  A
C2314      F2317   1.355       .  S
C2315      C2318   1.400       .  A
C2315      C2322   1.399       .  A
C2318      C2319   1.397       .  A
C2318      F2323   1.358       .  S
C2319      C2320   1.417       .  A
C2319      F2325   1.358       .  S
C2320      C2321   1.417       .  A
C2321      C2322   1.396       .  A
C2321      F2324   1.354       .  S
C2322      F2326   1.358       .  S
C2329      C2330   1.403       .  A
C2329      C2334   1.393       .  A
C2329      F2347   1.358       .  S
C2330      C2335   1.478       .  S
C2330      C2331   1.404       .  A
C2331      C2332   1.403       .  A
C2331      F2336   1.357       .  S
C2332      C2333   1.410       .  A
C2332      F2348   1.357       .  S
C2333      C2334   1.407       .  A
C2334      F2337   1.357       .  S
C2335      C2338   1.404       .  A
C2335      C2342   1.402       .  A
C2338      C2339   1.404       .  A
C2338      F2343   1.357       .  S
C2339      C2340   1.411       .  A
C2339      F2345   1.358       .  S
C2340      C2341   1.410       .  A
C2341      C2342   1.393       .  A
C2341      F2344   1.358       .  S
C2342      F2346   1.358       .  S
C2349      C2350   1.403       .  A
C2349      C2354   1.399       .  A
C2349      F2367   1.358       .  S
C2350      C2355   1.475       .  S
C2350      C2351   1.405       .  A
C2351      C2352   1.395       .  A
C2351      F2356   1.358       .  S
C2352      C2353   1.404       .  A
C2352      F2368   1.358       .  S
C2353      C2354   1.407       .  A
C2354      F2357   1.358       .  S
C2355      C2358   1.401       .  A
C2355      C2362   1.403       .  A
C2358      C2359   1.393       .  A
C2358      F2363   1.358       .  S
C2359      C2360   1.411       .  A
C2359      F2365   1.358       .  S
C2360      C2361   1.411       .  A
C2361      C2362   1.402       .  A
C2361      F2364   1.357       .  S
C2362      F2366   1.358       .  S
C2369      C2370   1.404       .  A
C2369      C2374   1.397       .  A
C2369      F2387   1.358       .  S
C2370      C2375   1.478       .  S
C2370      C2371   1.405       .  A
C2371      C2372   1.402       .  A
C2371      F2376   1.358       .  S
C2372      C2373   1.407       .  A
C2372      F2388   1.358       .  S
C2373      C2374   1.407       .  A
C2374      F2377   1.358       .  S
C2375      C2378   1.406       .  A
C2375      C2382   1.405       .  A
C2378      C2379   1.400       .  A
C2378      F2383   1.358       .  S
C2379      C2380   1.403       .  A
C2379      F2385   1.358       .  S
C2380      C2381   1.403       .  A
C2381      C2382   1.398       .  A
C2381      F2384   1.358       .  S
C2382      F2386   1.358       .  S
C2389      C2390   1.398       .  A
C2389      C2394   1.394       .  A
C2389      F2407   1.358       .  S
C2390      C2395   1.475       .  S
C2390      C2391   1.397       .  A
C2391      C2392   1.398       .  A
C2391      F2396   1.358       .  S
C2392      C2393   1.424       .  A
C2392      F2408   1.356       .  S
C2393      C2394   1.424       .  A
C2394      F2397   1.355       .  S
C2395      C2398   1.399       .  A
C2395      C2402   1.401       .  A
C2398      C2399   1.395       .  A
C2398      F2403   1.358       .  S
C2399      C2400   1.418       .  A
C2399      F2405   1.354       .  S
C2400      C2401   1.416       .  A
C2401      C2402   1.399       .  A
C2401      F2404   1.358       .  S
C2402      F2406   1.358       .  S
C2409      C2410   1.403       .  A
C2409      C2414   1.400       .  A
C2409      F2427   1.358       .  S
C2410      C2415   1.476       .  S
C2410      C2411   1.403       .  A
C2411      C2412   1.397       .  A
C2411      F2416   1.358       .  S
C2412      C2413   1.409       .  A
C2412      F2428   1.358       .  S
C2413      C2414   1.410       .  A
C2414      F2417   1.358       .  S
C2415      C2418   1.404       .  A
C2415      C2422   1.403       .  A
C2418      C2419   1.400       .  A
C2418      F2423   1.358       .  S
C2419      C2420   1.408       .  A
C2419      F2425   1.357       .  S
C2420      C2421   1.407       .  A
C2421      C2422   1.395       .  A
C2421      F2424   1.357       .  S
C2422      F2426   1.358       .  S
C2429      C2430   1.403       .  A
C2429      C2434   1.395       .  A
C2429      F2447   1.358       .  S
C2430      C2435   1.477       .  S
C2430      C2431   1.405       .  A
C2431      C2432   1.402       .  A
C2431      F2436   1.358       .  S
C2432      C2433   1.407       .  A
C2432      F2448   1.358       .  S
C2433      C2434   1.407       .  A
C2434      F2437   1.357       .  S
C2435      C2438   1.403       .  A
C2435      C2442   1.404       .  A
C2438      C2439   1.394       .  A
C2438      F2443   1.358       .  S
C2439      C2440   1.409       .  A
C2439      F2445   1.358       .  S
C2440      C2441   1.411       .  A
C2441      C2442   1.403       .  A
C2441      F2444   1.358       .  S
C2442      F2446   1.358       .  S
C2449      C2450   1.408       .  A
C2449      C2454   1.397       .  A
C2449      F2467   1.358       .  S
C2450      C2455   1.484       .  S
C2450      C2451   1.408       .  A
C2451      C2452   1.401       .  A
C2451      F2456   1.358       .  S
C2452      C2453   1.404       .  A
C2452      F2468   1.358       .  S
C2453      C2454   1.401       .  A
C2454      F2457   1.358       .  S
C2455      C2458   1.405       .  A
C2455      C2462   1.406       .  A
C2458      C2459   1.394       .  A
C2458      F2463   1.358       .  S
C2459      C2460   1.411       .  A
C2459      F2465   1.358       .  S
C2460      C2461   1.412       .  A
C2461      C2462   1.403       .  A
C2461      F2464   1.358       .  S
C2462      F2466   1.358       .  S
C2469      C2470   1.401       .  A
C2469      C2474   1.398       .  A
C2469      F2487   1.358       .  S
C2470      C2475   1.479       .  S
C2470      C2471   1.402       .  A
C2471      C2472   1.398       .  A
C2471      F2476   1.358       .  S
C2472      C2473   1.415       .  A
C2472      F2488   1.358       .  S
C2473      C2474   1.417       .  A
C2474      F2477   1.355       .  S
C2475      C2478   1.398       .  A
C2475      C2482   1.401       .  A
C2478      C2479   1.395       .  A
C2478      F2483   1.358       .  S
C2479      C2480   1.424       .  A
C2479      F2485   1.357       .  S
C2480      C2481   1.423       .  A
C2481      C2482   1.398       .  A
C2481      F2484   1.355       .  S
C2482      F2486   1.358       .  S
C2489      C2490   1.405       .  A
C2489      C2494   1.402       .  A
C2489      F2507   1.357       .  S
C2490      C2495   1.477       .  S
C2490      C2491   1.404       .  A
C2491      C2492   1.396       .  A
C2491      F2496   1.358       .  S
C2492      C2493   1.404       .  A
C2492      F2508   1.358       .  S
C2493      C2494   1.405       .  A
C2494      F2497   1.358       .  S
C2495      C2498   1.401       .  A
C2495      C2502   1.403       .  A
C2498      C2499   1.394       .  A
C2498      F2503   1.359       .  S
C2499      C2500   1.412       .  A
C2499      F2505   1.358       .  S
C2500      C2501   1.412       .  A
C2501      C2502   1.403       .  A
C2501      F2504   1.357       .  S
C2502      F2506   1.357       .  S
C2509      C2510   1.406       .  A
C2509      C2514   1.398       .  A
C2509      F2527   1.358       .  S
C2510      C2515   1.481       .  S
C2510      C2511   1.406       .  A
C2511      C2512   1.400       .  A
C2511      F2516   1.358       .  S
C2512      C2513   1.404       .  A
C2512      F2528   1.358       .  S
C2513      C2514   1.402       .  A
C2514      F2517   1.358       .  S
C2515      C2518   1.404       .  A
C2515      C2522   1.405       .  A
C2518      C2519   1.401       .  A
C2518      F2523   1.358       .  S
C2519      C2520   1.407       .  A
C2519      F2525   1.358       .  S
C2520      C2521   1.408       .  A
C2521      C2522   1.400       .  A
C2521      F2524   1.358       .  S
C2522      F2526   1.358       .  S
C2529      C2530   1.404       .  A
C2529      C2534   1.393       .  A
C2529      F2547   1.358       .  S
C2530      C2535   1.482       .  S
C2530      C2531   1.406       .  A
C2531      C2532   1.403       .  A
C2531      F2536   1.357       .  S
C2532      C2533   1.408       .  A
C2532      F2548   1.357       .  S
C2533      C2534   1.407       .  A
C2534      F2537   1.355       .  S
C2535      C2538   1.405       .  A
C2535      C2542   1.404       .  A
C2538      C2539   1.404       .  A
C2538      F2543   1.357       .  S
C2539      C2540   1.411       .  A
C2539      F2545   1.357       .  S
C2540      C2541   1.411       .  A
C2541      C2542   1.394       .  A
C2541      F2544   1.358       .  S
C2542      F2546   1.359       .  S
C2549      C2550   1.397       .  A
C2549      C2554   1.397       .  A
C2549      F2567   1.358       .  S
C2550      C2555   1.473       .  S
C2550      C2551   1.399       .  A
C2551      C2552   1.399       .  A
C2551      F2556   1.358       .  S
C2552      C2553   1.419       .  A
C2552      F2568   1.352       .  S
C2553      C2554   1.418       .  A
C2554      F2557   1.358       .  S
C2555      C2558   1.396       .  A
C2555      C2562   1.397       .  A
C2558      C2559   1.396       .  A
C2558      F2563   1.358       .  S
C2559      C2560   1.423       .  A
C2559      F2565   1.357       .  S
C2560      C2561   1.425       .  A
C2561      C2562   1.398       .  A
C2561      F2564   1.355       .  S
C2562      F2566   1.358       .  S
C2569      C2570   1.402       .  A
C2569      C2574   1.397       .  A
C2569      F2587   1.358       .  S
C2570      C2575   1.469       .  S
C2570      C2571   1.404       .  A
C2571      C2572   1.395       .  A
C2571      F2576   1.358       .  S
C2572      C2573   1.403       .  A
C2572      F2588   1.358       .  S
C2573      C2574   1.406       .  A
C2574      F2577   1.358       .  S
C2575      C2578   1.401       .  A
C2575      C2582   1.401       .  A
C2578      C2579   1.398       .  A
C2578      F2583   1.358       .  S
C2579      C2580   1.412       .  A
C2579      F2585   1.358       .  S
C2580      C2581   1.409       .  A
C2581      C2582   1.392       .  A
C2581      F2584   1.358       .  S
C2582      F2586   1.358       .  S
C2589      C2590   1.406       .  A
C2589      C2594   1.402       .  A
C2589      F2607   1.358       .  S
C2590      C2595   1.478       .  S
C2590      C2591   1.404       .  A
C2591      C2592   1.395       .  A
C2591      F2596   1.358       .  S
C2592      C2593   1.404       .  A
C2592      F2608   1.358       .  S
C2593      C2594   1.405       .  A
C2594      F2597   1.358       .  S
C2595      C2598   1.403       .  A
C2595      C2602   1.402       .  A
C2598      C2599   1.402       .  A
C2598      F2603   1.358       .  S
C2599      C2600   1.413       .  A
C2599      F2605   1.357       .  S
C2600      C2601   1.412       .  A
C2601      C2602   1.395       .  A
C2601      F2604   1.358       .  S
C2602      F2606   1.358       .  S
C2609      C2610   1.404       .  A
C2609      C2614   1.394       .  A
C2609      F2627   1.358       .  S
C2610      C2615   1.478       .  S
C2610      C2611   1.406       .  A
C2611      C2612   1.401       .  A
C2611      F2616   1.358       .  S
C2612      C2613   1.406       .  A
C2612      F2628   1.358       .  S
C2613      C2614   1.405       .  A
C2614      F2617   1.358       .  S
C2615      C2618   1.403       .  A
C2615      C2622   1.403       .  A
C2618      C2619   1.395       .  A
C2618      F2623   1.359       .  S
C2619      C2620   1.411       .  A
C2619      F2625   1.358       .  S
C2620      C2621   1.412       .  A
C2621      C2622   1.401       .  A
C2621      F2624   1.357       .  S
C2622      F2626   1.358       .  S
C2629      C2630   1.397       .  A
C2629      C2634   1.396       .  A
C2629      F2647   1.358       .  S
C2630      C2635   1.469       .  S
C2630      C2631   1.398       .  A
C2631      C2632   1.395       .  A
C2631      F2636   1.358       .  S
C2632      C2633   1.417       .  A
C2632      F2648   1.353       .  S
C2633      C2634   1.418       .  A
C2634      F2637   1.358       .  S
C2635      C2638   1.395       .  A
C2635      C2642   1.397       .  A
C2638      C2639   1.394       .  A
C2638      F2643   1.359       .  S
C2639      C2640   1.428       .  A
C2639      F2645   1.356       .  S
C2640      C2641   1.422       .  A
C2641      C2642   1.396       .  A
C2641      F2644   1.356       .  S
C2642      F2646   1.358       .  S
C2649      C2650   1.406       .  A
C2649      C2654   1.400       .  A
C2649      F2667   1.358       .  S
C2650      C2655   1.477       .  S
C2650      C2651   1.406       .  A
C2651      C2652   1.395       .  A
C2651      F2656   1.358       .  S
C2652      C2653   1.402       .  A
C2652      F2668   1.358       .  S
C2653      C2654   1.404       .  A
C2654      F2657   1.358       .  S
C2655      C2658   1.403       .  A
C2655      C2662   1.402       .  A
C2658      C2659   1.402       .  A
C2658      F2663   1.358       .  S
C2659      C2660   1.413       .  A
C2659      F2665   1.357       .  S
C2660      C2661   1.412       .  A
C2661      C2662   1.393       .  A
C2661      F2664   1.358       .  S
C2662      F2666   1.359       .  S
C2669      C2670   1.406       .  A
C2669      C2674   1.404       .  A
C2669      F2687   1.358       .  S
C2670      C2675   1.479       .  S
C2670      C2671   1.402       .  A
C2671      C2672   1.392       .  A
C2671      F2676   1.358       .  S
C2672      C2673   1.410       .  A
C2672      F2688   1.358       .  S
C2673      C2674   1.409       .  A
C2674      F2677   1.357       .  S
C2675      C2678   1.404       .  A
C2675      C2682   1.404       .  A
C2678      C2679   1.401       .  A
C2678      F2683   1.358       .  S
C2679      C2680   1.410       .  A
C2679      F2685   1.357       .  S
C2680      C2681   1.408       .  A
C2681      C2682   1.395       .  A
C2681      F2684   1.358       .  S
C2682      F2686   1.358       .  S
C2689      C2690   1.403       .  A
C2689      C2694   1.394       .  A
C2689      F2707   1.358       .  S
C2690      C2695   1.466       .  S
C2690      C2691   1.401       .  A
C2691      C2692   1.396       .  A
C2691      F2696   1.358       .  S
C2692      C2693   1.408       .  A
C2692      F2708   1.358       .  S
C2693      C2694   1.404       .  A
C2694      F2697   1.358       .  S
C2695      C2698   1.400       .  A
C2695      C2702   1.402       .  A
C2698      C2699   1.392       .  A
C2698      F2703   1.358       .  S
C2699      C2700   1.408       .  A
C2699      F2705   1.358       .  S
C2700      C2701   1.408       .  A
C2701      C2702   1.399       .  A
C2701      F2704   1.358       .  S
C2702      F2706   1.358       .  S
C2709      C2710   1.396       .  A
C2709      C2714   1.392       .  A
C2709      F2727   1.358       .  S
C2710      C2715   1.466       .  S
C2710      C2711   1.399       .  A
C2711      C2712   1.395       .  A
C2711      F2716   1.358       .  S
C2712      C2713   1.415       .  A
C2712      F2728   1.356       .  S
C2713      C2714   1.419       .  A
C2714      F2717   1.357       .  S
C2715      C2718   1.395       .  A
C2715      C2722   1.396       .  A
C2718      C2719   1.391       .  A
C2718      F2723   1.358       .  S
C2719      C2720   1.423       .  A
C2719      F2725   1.356       .  S
C2720      C2721   1.426       .  A
C2721      C2722   1.396       .  A
C2721      F2724   1.355       .  S
C2722      F2726   1.358       .  S
C2729      C2730   1.407       .  A
C2729      C2734   1.399       .  A
C2729      F2747   1.358       .  S
C2730      C2735   1.480       .  S
C2730      C2731   1.407       .  A
C2731      C2732   1.397       .  A
C2731      F2736   1.358       .  S
C2732      C2733   1.401       .  A
C2732      F2748   1.358       .  S
C2733      C2734   1.402       .  A
C2734      F2737   1.357       .  S
C2735      C2738   1.404       .  A
C2735      C2742   1.406       .  A
C2738      C2739   1.393       .  A
C2738      F2743   1.359       .  S
C2739      C2740   1.408       .  A
C2739      F2745   1.358       .  S
C2740      C2741   1.408       .  A
C2741      C2742   1.403       .  A
C2741      F2744   1.357       .  S
C2742      F2746   1.358       .  S
C2749      C2750   1.402       .  A
C2749      C2754   1.400       .  A
C2749      F2767   1.358       .  S
C2750      C2755   1.470       .  S
C2750      C2751   1.401       .  A
C2751      C2752   1.395       .  A
C2751      F2756   1.358       .  S
C2752      C2753   1.407       .  A
C2752      F2768   1.356       .  S
C2753      C2754   1.409       .  A
C2754      F2757   1.358       .  S
C2755      C2758   1.401       .  A
C2755      C2762   1.401       .  A
C2758      C2759   1.394       .  A
C2758      F2763   1.358       .  S
C2759      C2760   1.410       .  A
C2759      F2765   1.358       .  S
C2760      C2761   1.410       .  A
C2761      C2762   1.399       .  A
C2761      F2764   1.358       .  S
C2762      F2766   1.358       .  S
C2769      C2770   1.402       .  A
C2769      C2774   1.402       .  A
C2769      F2787   1.358       .  S
C2770      C2775   1.475       .  S
C2770      C2771   1.401       .  A
C2771      C2772   1.396       .  A
C2771      F2776   1.358       .  S
C2772      C2773   1.408       .  A
C2772      F2788   1.356       .  S
C2773      C2774   1.411       .  A
C2774      F2777   1.358       .  S
C2775      C2778   1.404       .  A
C2775      C2782   1.401       .  A
C2778      C2779   1.403       .  A
C2778      F2783   1.358       .  S
C2779      C2780   1.409       .  A
C2779      F2785   1.358       .  S
C2780      C2781   1.408       .  A
C2781      C2782   1.396       .  A
C2781      F2784   1.358       .  S
C2782      F2786   1.358       .  S
C2789      C2790   1.402       .  A
C2789      C2794   1.397       .  A
C2789      F2807   1.358       .  S
C2790      C2795   1.478       .  S
C2790      C2791   1.401       .  A
C2791      C2792   1.397       .  A
C2791      F2796   1.358       .  S
C2792      C2793   1.415       .  A
C2792      F2808   1.358       .  S
C2793      C2794   1.415       .  A
C2794      F2797   1.356       .  S
C2795      C2798   1.398       .  A
C2795      C2802   1.399       .  A
C2798      C2799   1.398       .  A
C2798      F2803   1.358       .  S
C2799      C2800   1.426       .  A
C2799      F2805   1.355       .  S
C2800      C2801   1.422       .  A
C2801      C2802   1.396       .  A
C2801      F2804   1.357       .  S
C2802      F2806   1.358       .  S
C2809      C2810   1.405       .  A
C2809      C2814   1.397       .  A
C2809      F2827   1.358       .  S
C2810      C2815   1.472       .  S
C2810      C2811   1.403       .  A
C2811      C2812   1.398       .  A
C2811      F2816   1.358       .  S
C2812      C2813   1.406       .  A
C2812      F2828   1.358       .  S
C2813      C2814   1.403       .  A
C2814      F2817   1.358       .  S
C2815      C2818   1.404       .  A
C2815      C2822   1.403       .  A
C2818      C2819   1.400       .  A
C2818      F2823   1.358       .  S
C2819      C2820   1.406       .  A
C2819      F2825   1.358       .  S
C2820      C2821   1.405       .  A
C2821      C2822   1.395       .  A
C2821      F2824   1.358       .  S
C2822      F2826   1.358       .  S
C2829      C2830   1.406       .  A
C2829      C2834   1.400       .  A
C2829      F2847   1.358       .  S
C2830      C2835   1.482       .  S
C2830      C2831   1.406       .  A
C2831      C2832   1.397       .  A
C2831      F2836   1.358       .  S
C2832      C2833   1.405       .  A
C2832      F2848   1.358       .  S
C2833      C2834   1.406       .  A
C2834      F2837   1.358       .  S
C2835      C2838   1.403       .  A
C2835      C2842   1.405       .  A
C2838      C2839   1.395       .  A
C2838      F2843   1.359       .  S
C2839      C2840   1.413       .  A
C2839      F2845   1.358       .  S
C2840      C2841   1.412       .  A
C2841      C2842   1.402       .  A
C2841      F2844   1.357       .  S
C2842      F2846   1.358       .  S
C2849      C2850   1.406       .  A
C2849      C2854   1.402       .  A
C2849      F2867   1.358       .  S
C2850      C2855   1.480       .  S
C2850      C2851   1.405       .  A
C2851      C2852   1.393       .  A
C2851      F2856   1.358       .  S
C2852      C2853   1.405       .  A
C2852      F2868   1.357       .  S
C2853      C2854   1.407       .  A
C2854      F2857   1.358       .  S
C2855      C2858   1.404       .  A
C2855      C2862   1.404       .  A
C2858      C2859   1.394       .  A
C2858      F2863   1.359       .  S
C2859      C2860   1.410       .  A
C2859      F2865   1.358       .  S
C2860      C2861   1.412       .  A
C2861      C2862   1.402       .  A
C2861      F2864   1.358       .  S
C2862      F2866   1.358       .  S
C2869      C2870   1.398       .  A
C2869      C2874   1.395       .  A
C2869      F2887   1.358       .  S
C2870      C2875   1.473       .  S
C2870      C2871   1.400       .  A
C2871      C2872   1.398       .  A
C2871      F2876   1.358       .  S
C2872      C2873   1.417       .  A
C2872      F2888   1.354       .  S
C2873      C2874   1.416       .  A
C2874      F2877   1.358       .  S
C2875      C2878   1.397       .  A
C2875      C2882   1.396       .  A
C2878      C2879   1.397       .  A
C2878      F2883   1.358       .  S
C2879      C2880   1.426       .  A
C2879      F2885   1.355       .  S
C2880      C2881   1.423       .  A
C2881      C2882   1.395       .  A
C2881      F2884   1.356       .  S
C2882      F2886   1.358       .  S
C2889      C2890   1.405       .  A
C2889      C2894   1.396       .  A
C2889      F2907   1.358       .  S
C2890      C2895   1.480       .  S
C2890      C2891   1.406       .  A
C2891      C2892   1.401       .  A
C2891      F2896   1.358       .  S
C2892      C2893   1.406       .  A
C2892      F2908   1.358       .  S
C2893      C2894   1.404       .  A
C2894      F2897   1.357       .  S
C2895      C2898   1.405       .  A
C2895      C2902   1.402       .  A
C2898      C2899   1.404       .  A
C2898      F2903   1.358       .  S
C2899      C2900   1.413       .  A
C2899      F2905   1.358       .  S
C2900      C2901   1.411       .  A
C2901      C2902   1.394       .  A
C2901      F2904   1.358       .  S
C2902      F2906   1.358       .  S
C2909      C2910   1.405       .  A
C2909      C2914   1.402       .  A
C2909      F2927   1.358       .  S
C2910      C2915   1.476       .  S
C2910      C2911   1.404       .  A
C2911      C2912   1.393       .  A
C2911      F2916   1.358       .  S
C2912      C2913   1.402       .  A
C2912      F2928   1.358       .  S
C2913      C2914   1.407       .  A
C2914      F2917   1.358       .  S
C2915      C2918   1.402       .  A
C2915      C2922   1.403       .  A
C2918      C2919   1.392       .  A
C2918      F2923   1.359       .  S
C2919      C2920   1.410       .  A
C2919      F2925   1.358       .  S
C2920      C2921   1.413       .  A
C2921      C2922   1.402       .  A
C2921      F2924   1.358       .  S
C2922      F2926   1.358       .  S
C2929      C2930   1.406       .  A
C2929      C2934   1.395       .  A
C2929      F2947   1.358       .  S
C2930      C2935   1.480       .  S
C2930      C2931   1.406       .  A
C2931      C2932   1.400       .  A
C2931      F2936   1.358       .  S
C2932      C2933   1.406       .  A
C2932      F2948   1.358       .  S
C2933      C2934   1.404       .  A
C2934      F2937   1.358       .  S
C2935      C2938   1.403       .  A
C2935      C2942   1.404       .  A
C2938      C2939   1.401       .  A
C2938      F2943   1.358       .  S
C2939      C2940   1.413       .  A
C2939      F2945   1.358       .  S
C2940      C2941   1.412       .  A
C2941      C2942   1.394       .  A
C2941      F2944   1.358       .  S
C2942      F2946   1.358       .  S
C2949      C2950   1.404       .  A
C2949      C2954   1.397       .  A
C2949      F2967   1.358       .  S
C2950      C2955   1.483       .  S
C2950      C2951   1.402       .  A
C2951      C2952   1.396       .  A
C2951      F2956   1.358       .  S
C2952      C2953   1.415       .  A
C2952      F2968   1.357       .  S
C2953      C2954   1.416       .  A
C2954      F2957   1.357       .  S
C2955      C2958   1.402       .  A
C2955      C2962   1.399       .  A
C2958      C2959   1.398       .  A
C2958      F2963   1.358       .  S
C2959      C2960   1.419       .  A
C2959      F2965   1.356       .  S
C2960      C2961   1.428       .  A
C2961      C2962   1.395       .  A
C2961      F2964   1.356       .  S
C2962      F2966   1.359       .  S
C2969      C2970   1.405       .  A
C2969      C2974   1.401       .  A
C2969      F2987   1.358       .  S
C2970      C2975   1.472       .  S
C2970      C2971   1.402       .  A
C2971      C2972   1.392       .  A
C2971      F2976   1.358       .  S
C2972      C2973   1.403       .  A
C2972      F2988   1.356       .  S
C2973      C2974   1.405       .  A
C2974      F2977   1.358       .  S
C2975      C2978   1.400       .  A
C2975      C2982   1.402       .  A
C2978      C2979   1.399       .  A
C2978      F2983   1.358       .  S
C2979      C2980   1.413       .  A
C2979      F2985   1.358       .  S
C2980      C2981   1.411       .  A
C2981      C2982   1.394       .  A
C2981      F2984   1.358       .  S
C2982      F2986   1.359       .  S
C2989      C2990   1.404       .  A
C2989      C2994   1.400       .  A
C2989      F3007   1.358       .  S
C2990      C2995   1.474       .  S
C2990      C2991   1.404       .  A
C2991      C2992   1.395       .  A
C2991      F2996   1.358       .  S
C2992      C2993   1.404       .  A
C2992      F3008   1.358       .  S
C2993      C2994   1.407       .  A
C2994      F2997   1.358       .  S
C2995      C2998   1.402       .  A
C2995      C3002   1.401       .  A
C2998      C2999   1.401       .  A
C2998      F3003   1.358       .  S
C2999      C3000   1.412       .  A
C2999      F3005   1.357       .  S
C3000      C3001   1.412       .  A
C3001      C3002   1.394       .  A
C3001      F3004   1.358       .  S
C3002      F3006   1.358       .  S
C3009      C3010   1.403       .  A
C3009      C3014   1.392       .  A
C3009      F3027   1.358       .  S
C3010      C3015   1.472       .  S
C3010      C3011   1.404       .  A
C3011      C3012   1.400       .  A
C3011      F3016   1.358       .  S
C3012      C3013   1.406       .  A
C3012      F3028   1.358       .  S
C3013      C3014   1.403       .  A
C3014      F3017   1.358       .  S
C3015      C3018   1.401       .  A
C3015      C3022   1.403       .  A
C3018      C3019   1.389       .  A
C3018      F3023   1.359       .  S
C3019      C3020   1.411       .  A
C3019      F3025   1.358       .  S
C3020      C3021   1.411       .  A
C3021      C3022   1.402       .  A
C3021      F3024   1.358       .  S
C3022      F3026   1.357       .  S
C3029      C3030   1.395       .  A
C3029      C3034   1.396       .  A
C3029      F3047   1.358       .  S
C3030      C3035   1.465       .  S
C3030      C3031   1.394       .  A
C3031      C3032   1.393       .  A
C3031      F3036   1.358       .  S
C3032      C3033   1.424       .  A
C3032      F3048   1.355       .  S
C3033      C3034   1.424       .  A
C3034      F3037   1.355       .  S
C3035      C3038   1.398       .  A
C3035      C3042   1.397       .  A
C3038      C3039   1.394       .  A
C3038      F3043   1.358       .  S
C3039      C3040   1.416       .  A
C3039      F3045   1.356       .  S
C3040      C3041   1.416       .  A
C3041      C3042   1.395       .  A
C3041      F3044   1.358       .  S
C3042      F3046   1.358       .  S
C3049      C3050   1.403       .  A
C3049      C3054   1.397       .  A
C3049      F3067   1.358       .  S
C3050      C3055   1.475       .  S
C3050      C3051   1.405       .  A
C3051      C3052   1.401       .  A
C3051      F3056   1.358       .  S
C3052      C3053   1.404       .  A
C3052      F3068   1.358       .  S
C3053      C3054   1.405       .  A
C3054      F3057   1.357       .  S
C3055      C3058   1.403       .  A
C3055      C3062   1.400       .  A
C3058      C3059   1.403       .  A
C3058      F3063   1.358       .  S
C3059      C3060   1.412       .  A
C3059      F3065   1.358       .  S
C3060      C3061   1.412       .  A
C3061      C3062   1.396       .  A
C3061      F3064   1.358       .  S
C3062      F3066   1.358       .  S
C3069      C3070   1.402       .  A
C3069      C3074   1.400       .  A
C3069      F3087   1.358       .  S
C3070      C3075   1.472       .  S
C3070      C3071   1.403       .  A
C3071      C3072   1.395       .  A
C3071      F3076   1.358       .  S
C3072      C3073   1.405       .  A
C3072      F3088   1.358       .  S
C3073      C3074   1.410       .  A
C3074      F3077   1.358       .  S
C3075      C3078   1.401       .  A
C3075      C3082   1.403       .  A
C3078      C3079   1.394       .  A
C3078      F3083   1.358       .  S
C3079      C3080   1.407       .  A
C3079      F3085   1.358       .  S
C3080      C3081   1.408       .  A
C3081      C3082   1.401       .  A
C3081      F3084   1.358       .  S
C3082      F3086   1.358       .  S
C3089      C3090   1.404       .  A
C3089      C3094   1.394       .  A
C3089      F3107   1.358       .  S
C3090      C3095   1.476       .  S
C3090      C3091   1.405       .  A
C3091      C3092   1.400       .  A
C3091      F3096   1.358       .  S
C3092      C3093   1.406       .  A
C3092      F3108   1.358       .  S
C3093      C3094   1.404       .  A
C3094      F3097   1.358       .  S
C3095      C3098   1.402       .  A
C3095      C3102   1.403       .  A
C3098      C3099   1.400       .  A
C3098      F3103   1.358       .  S
C3099      C3100   1.413       .  A
C3099      F3105   1.358       .  S
C3100      C3101   1.411       .  A
C3101      C3102   1.395       .  A
C3101      F3104   1.358       .  S
C3102      F3106   1.358       .  S
C3109      C3110   1.402       .  A
C3109      C3114   1.398       .  A
C3109      F3127   1.359       .  S
C3110      C3115   1.475       .  S
C3110      C3111   1.398       .  A
C3111      C3112   1.393       .  A
C3111      F3116   1.358       .  S
C3112      C3113   1.418       .  A
C3112      F3128   1.359       .  S
C3113      C3114   1.417       .  A
C3114      F3117   1.352       .  S
C3115      C3118   1.399       .  A
C3115      C3122   1.399       .  A
C3118      C3119   1.394       .  A
C3118      F3123   1.358       .  S
C3119      C3120   1.424       .  A
C3119      F3125   1.356       .  S
C3120      C3121   1.421       .  A
C3121      C3122   1.395       .  A
C3121      F3124   1.357       .  S
C3122      F3126   1.358       .  S
C3129      C3130   1.401       .  A
C3129      C3134   1.391       .  A
C3129      F3147   1.359       .  S
C3130      C3135   1.477       .  S
C3130      C3131   1.405       .  A
C3131      C3132   1.405       .  A
C3131      F3136   1.357       .  S
C3132      C3133   1.411       .  A
C3132      F3148   1.358       .  S
C3133      C3134   1.410       .  A
C3134      F3137   1.358       .  S
C3135      C3138   1.405       .  A
C3135      C3142   1.406       .  A
C3138      C3139   1.401       .  A
C3138      F3143   1.358       .  S
C3139      C3140   1.404       .  A
C3139      F3145   1.358       .  S
C3140      C3141   1.401       .  A
C3141      C3142   1.397       .  A
C3141      F3144   1.357       .  S
C3142      F3146   1.358       .  S
C3149      C3150   1.403       .  A
C3149      C3154   1.397       .  A
C3149      F3167   1.358       .  S
C3150      C3155   1.479       .  S
C3150      C3151   1.403       .  A
C3151      C3152   1.401       .  A
C3151      F3156   1.358       .  S
C3152      C3153   1.412       .  A
C3152      F3168   1.358       .  S
C3153      C3154   1.411       .  A
C3154      F3157   1.358       .  S
C3155      C3158   1.403       .  A
C3155      C3162   1.403       .  A
C3158      C3159   1.397       .  A
C3158      F3163   1.358       .  S
C3159      C3160   1.407       .  A
C3159      F3165   1.356       .  S
C3160      C3161   1.411       .  A
C3161      C3162   1.401       .  A
C3161      F3164   1.358       .  S
C3162      F3166   1.358       .  S
C3169      C3170   1.401       .  A
C3169      C3174   1.396       .  A
C3169      F3187   1.358       .  S
C3170      C3175   1.469       .  S
C3170      C3171   1.402       .  A
C3171      C3172   1.396       .  A
C3171      F3176   1.358       .  S
C3172      C3173   1.407       .  A
C3172      F3188   1.356       .  S
C3173      C3174   1.409       .  A
C3174      F3177   1.358       .  S
C3175      C3178   1.403       .  A
C3175      C3182   1.403       .  A
C3178      C3179   1.394       .  A
C3178      F3183   1.358       .  S
C3179      C3180   1.404       .  A
C3179      F3185   1.358       .  S
C3180      C3181   1.405       .  A
C3181      C3182   1.398       .  A
C3181      F3184   1.358       .  S
C3182      F3186   1.358       .  S
C3189      C3190   1.399       .  A
C3189      C3194   1.396       .  A
C3189      F3207   1.358       .  S
C3190      C3195   1.475       .  S
C3190      C3191   1.397       .  A
C3191      C3192   1.395       .  A
C3191      F3196   1.359       .  S
C3192      C3193   1.426       .  A
C3192      F3208   1.356       .  S
C3193      C3194   1.422       .  A
C3194      F3197   1.356       .  S
C3195      C3198   1.401       .  A
C3195      C3202   1.398       .  A
C3198      C3199   1.399       .  A
C3198      F3203   1.358       .  S
C3199      C3200   1.418       .  A
C3199      F3205   1.352       .  S
C3200      C3201   1.417       .  A
C3201      C3202   1.393       .  A
C3201      F3204   1.359       .  S
C3202      F3206   1.358       .  S
C3209      C3210   1.401       .  A
C3209      C3214   1.397       .  A
C3209      F3227   1.358       .  S
C3210      C3215   1.468       .  S
C3210      C3211   1.401       .  A
C3211      C3212   1.392       .  A
C3211      F3216   1.359       .  S
C3212      C3213   1.410       .  A
C3212      F3228   1.358       .  S
C3213      C3214   1.410       .  A
C3214      F3217   1.358       .  S
C3215      C3218   1.403       .  A
C3215      C3222   1.402       .  A
C3218      C3219   1.398       .  A
C3218      F3223   1.358       .  S
C3219      C3220   1.406       .  A
C3219      F3225   1.358       .  S
C3220      C3221   1.405       .  A
C3221      C3222   1.392       .  A
C3221      F3224   1.357       .  S
C3222      F3226   1.358       .  S
C3229      C3230   1.401       .  A
C3229      C3234   1.401       .  A
C3229      F3247   1.358       .  S
C3230      C3235   1.475       .  S
C3230      C3231   1.402       .  A
C3231      C3232   1.397       .  A
C3231      F3236   1.358       .  S
C3232      C3233   1.410       .  A
C3232      F3248   1.358       .  S
C3233      C3234   1.412       .  A
C3234      F3237   1.358       .  S
C3235      C3238   1.404       .  A
C3235      C3242   1.402       .  A
C3238      C3239   1.402       .  A
C3238      F3243   1.358       .  S
C3239      C3240   1.407       .  A
C3239      F3245   1.358       .  S
C3240      C3241   1.405       .  A
C3241      C3242   1.396       .  A
C3241      F3244   1.358       .  S
C3242      F3246   1.358       .  S
C3249      C3250   1.405       .  A
C3249      C3254   1.398       .  A
C3249      F3267   1.358       .  S
C3250      C3255   1.470       .  S
C3250      C3251   1.403       .  A
C3251      C3252   1.393       .  A
C3251      F3256   1.358       .  S
C3252      C3253   1.404       .  A
C3252      F3268   1.358       .  S
C3253      C3254   1.405       .  A
C3254      F3257   1.358       .  S
C3255      C3258   1.405       .  A
C3255      C3262   1.404       .  A
C3258      C3259   1.397       .  A
C3258      F3263   1.358       .  S
C3259      C3260   1.402       .  A
C3259      F3265   1.358       .  S
C3260      C3261   1.401       .  A
C3261      C3262   1.394       .  A
C3261      F3264   1.358       .  S
C3262      F3266   1.358       .  S
C3269      C3270   1.399       .  A
C3269      C3274   1.395       .  A
C3269      F3287   1.359       .  S
C3270      C3275   1.472       .  S
C3270      C3271   1.399       .  A
C3271      C3272   1.394       .  A
C3271      F3276   1.358       .  S
C3272      C3273   1.417       .  A
C3272      F3288   1.359       .  S
C3273      C3274   1.419       .  A
C3274      F3277   1.351       .  S
C3275      C3278   1.399       .  A
C3275      C3282   1.396       .  A
C3278      C3279   1.397       .  A
C3278      F3283   1.358       .  S
C3279      C3280   1.424       .  A
C3279      F3285   1.355       .  S
C3280      C3281   1.423       .  A
C3281      C3282   1.391       .  A
C3281      F3284   1.355       .  S
C3282      F3286   1.358       .  S
