geometry optimzed in LAMMPS
_audit_creation_date              2020-11-30 
_audit_creation_method            'lammps2cif' 
_symmetry_space_group_name_H-M    'P1' 
_symmetry_Int_Tables_number       1 
_symmetry_cell_setting            triclinic 
loop_ 
_symmetry_equiv_pos_as_xyz 
  x,y,z 
_cell_length_a                    55.43010929 
_cell_length_b                    55.46713300751336 
_cell_length_c                    55.52277721291308 
_cell_angle_alpha                 90.70036042223184 
_cell_angle_beta                  90.39944008003594 
_cell_angle_gamma                 90.37545802296377 
loop_ 
_atom_site_label 
_atom_site_type_symbol 
_atom_site_fract_x 
_atom_site_fract_y 
_atom_site_fract_z 
_atom_site_charge 
O1          O  0.50445676  0.47535345  0.43569273    -0.77900
C2          C  0.43890253  0.52850508  0.44237562     0.83200
O3          O  0.52448037  0.54122912  0.48531564    -0.79000
O4          O  0.44608422  0.52893211  0.52003670    -0.80500
O5          O  0.45634338  0.44842767  0.50716984    -0.80300
O6          O  0.49880031  0.44522659  0.46109422    -0.78900
Zn7        Zn  0.48682812  0.50378962  0.45119749     1.55700
O8          O  0.42835374  0.47695490  0.50582258    -0.80300
Cd9        Cd  0.48517237  0.46371508  0.49006796     1.59700
Cd10       Cd  0.50355691  0.51835104  0.50661436     1.59600
O11         O  0.51221700  0.45947717  0.51386340    -0.80300
O12         O  0.48117772  0.49854296  0.48482050    -1.90800
Cd13       Cd  0.44711567  0.50581942  0.49165805     1.59900
O14         O  0.52604648  0.49543615  0.52622932    -0.80300
O15         O  0.43153852  0.52435213  0.46363962    -0.78900
C16         C  0.52390361  0.54323390  0.46243256     0.83600
C17         C  0.50874483  0.45385667  0.44247637     0.83300
O18         O  0.45804558  0.51872396  0.43416870    -0.77900
C19         C  0.43581115  0.45660237  0.51316575     0.84100
O20         O  0.51045234  0.53013933  0.44908309    -0.78000
C21         C  0.52654843  0.47242803  0.52637435     0.84200
C22         C  0.46073109  0.53992345  0.53402211     0.84600
O23         O  0.48357387  0.53879916  0.53145435    -0.80400
O24         O  0.47419778  0.20327248  0.21142940    -0.77900
C25         C  0.53910662  0.20193000  0.26365152     0.83200
O26         O  0.46223950  0.25497834  0.27984323    -0.79000
O27         O  0.54520614  0.27644443  0.26720628    -0.80500
O28         O  0.52816748  0.26891130  0.18464236    -0.80300
O29         O  0.47680748  0.23183603  0.18389773    -0.78900
Zn30       Zn  0.49271185  0.21772760  0.23958679     1.55700
O31         O  0.55679092  0.26413134  0.21258630    -0.80300
Cd32       Cd  0.49738934  0.25754584  0.20137955     1.59700
Cd33       Cd  0.48564819  0.27477285  0.25738566     1.59600
O34         O  0.47521470  0.28595896  0.19913784    -0.80300
O35         O  0.50280979  0.25058808  0.23559787    -1.90800
Cd36       Cd  0.53791426  0.25148231  0.24144182     1.59900
O37         O  0.46555257  0.29901402  0.23599547    -0.80300
O38         O  0.55042038  0.22084165  0.25739601    -0.78900
C39         C  0.45761394  0.23234850  0.27866025     0.83600
C40         C  0.46760207  0.21231233  0.19147052     0.83300
O41         O  0.51781861  0.19737364  0.25595646    -0.77900
C42         C  0.54967500  0.27202571  0.19233284     0.84100
O43         O  0.46798287  0.21845384  0.26385774    -0.78000
C44         C  0.46380663  0.30004029  0.21302445     0.84200
C45         C  0.53407515  0.29153503  0.28025815     0.84600
O46         O  0.51117218  0.29412961  0.27881667    -0.80400
C47         C  0.78799028  0.77531223  0.79237309     0.80800
N48         N  0.76946426  0.78784212  0.80233059    -0.77500
C49         C  0.76087245  0.80819953  0.79192251     0.83300
N50         N  0.77115915  0.81600215  0.77118843    -0.77400
C51         C  0.78974103  0.80376914  0.76093019     0.83400
N52         N  0.79807801  0.78355274  0.77174748    -0.79100
C53         C  0.76537885  0.97047121  0.95311848     0.80800
N54         N  0.77706761  0.98964788  0.94357110    -0.77500
C55         C  0.79745120  0.99884914  0.95391709     0.83300
N56         N  0.80636409  0.98829663  0.97409139    -0.77400
C57         C  0.79503530  0.96893588  0.98399368     0.83400
N58         N  0.77449943  0.96015017  0.97332570    -0.79100
C59         C  0.94667829  0.80519863  0.98315063     0.80800
N60         N  0.96695571  0.81442907  0.97287038    -0.77500
C61         C  0.97631997  0.80423658  0.95251850     0.83300
N62         N  0.96510171  0.78453659  0.94260166    -0.77400
C63         C  0.94490466  0.77494730  0.95259384     0.83400
N64         N  0.93583604  0.78550841  0.97281561    -0.79100
C65         C  0.95298931  0.95791148  0.75993044     0.80800
N66         N  0.94428172  0.97849384  0.77017600    -0.77500
C67         C  0.95510167  0.98853530  0.79003652     0.83300
N68         N  0.97483724  0.97760950  0.79962298    -0.77400
C69         C  0.98380437  0.95701635  0.78968674     0.83400
N70         N  0.97267860  0.94732535  0.76990955    -0.79100
N71         N  0.06655803  0.87722529  0.87196290    -0.36000
N72         N  0.10266872  0.85308511  0.90200738    -0.56600
N73         N  0.14082420  0.87568584  0.87411342    -0.36000
N74         N  0.10475332  0.90248796  0.84635738    -0.56600
C75         C  0.05184164  0.86652976  0.88811111     0.27600
C76         C  0.05299667  0.89258608  0.85879485     0.27600
C77         C  0.15366978  0.86691719  0.89284244     0.27600
C78         C  0.15468222  0.89282835  0.86387948     0.27600
C79         C  0.08263343  0.84194748  0.91029300     0.36200
C80         C  0.12186322  0.84148690  0.91150381     0.36200
C81         C  0.08571287  0.91023163  0.83325973     0.36200
C82         C  0.12489082  0.90955512  0.83470885     0.36200
C83         C  0.02853677  0.87497389  0.88489395    -0.21300
C84         C  0.02927288  0.89137141  0.86652035    -0.21300
C85         C  0.17591821  0.87843093  0.89432676    -0.21300
C86         C  0.17656193  0.89475887  0.87608624    -0.21300
C87         C  0.08917756  0.82336253  0.92544710    -0.22300
C88         C  0.11398739  0.82298929  0.92610706    -0.22300
C89         C  0.09384477  0.92253756  0.81325542    -0.22300
C90         C  0.11866256  0.92205495  0.81414737    -0.22300
C91         C  0.05849516  0.84875732  0.90514931    -0.17700
C92         C  0.06111456  0.90719642  0.83953677    -0.17700
C93         C  0.14875257  0.90623387  0.84325324    -0.17700
C94         C  0.14633133  0.84832776  0.90833254    -0.17700
H95         H  0.01254436  0.86981460  0.89469871     0.15200
H96         H  0.01396852  0.90119144  0.85957932     0.15200
H97         H  0.19020367  0.87552400  0.90733886     0.15200
H98         H  0.19148556  0.90679154  0.87233617     0.15200
H99         H  0.07731631  0.81134584  0.93509534     0.13500
H100        H  0.12494554  0.81067810  0.93638972     0.13500
H101        H  0.08303111  0.93105599  0.79950320     0.13500
H102        H  0.13073282  0.93021597  0.80130446     0.13500
H103        H  0.08439845  0.87361397  0.86955497     0.26800
H104        H  0.12433488  0.86951384  0.86792052     0.26800
N105        N  0.87184815  0.88583432  0.07040914    -0.36000
N106        N  0.84473331  0.91338113  0.10621851    -0.56600
N107        N  0.86859900  0.88667114  0.14440016    -0.36000
N108        N  0.89841944  0.86149680  0.10867903    -0.56600
C109        C  0.86118826  0.90227345  0.05597009     0.27600
C110        C  0.88874077  0.87416763  0.05722394     0.27600
C111        C  0.85760966  0.90416129  0.15736909     0.27600
C112        C  0.88593074  0.87734254  0.15866730     0.27600
C113        C  0.83352245  0.92130964  0.08614644     0.36200
C114        C  0.83163980  0.92129331  0.12515209     0.36200
C115        C  0.90695837  0.84877731  0.08962083     0.36200
C116        C  0.90570808  0.84999023  0.12879795     0.36200
C117        C  0.87130633  0.90079998  0.03322217    -0.21300
C118        C  0.88862502  0.88316762  0.03401621    -0.21300
C119        C  0.86793556  0.90582451  0.18015383    -0.21300
C120        C  0.88578361  0.88888760  0.18098937    -0.21300
C121        C  0.81341228  0.93468754  0.09243242    -0.22300
C122        C  0.81213164  0.93452759  0.11710598    -0.22300
C123        C  0.92011991  0.82926941  0.09773210    -0.22300
C124        C  0.91935037  0.83005855  0.12253689    -0.22300
C125        C  0.84181556  0.91777609  0.06229069    -0.17700
C126        C  0.90358207  0.85490020  0.06504862    -0.17700
C127        C  0.90107788  0.85784452  0.15271477    -0.17700
C128        C  0.83795324  0.91816341  0.14963513    -0.17700
H129        H  0.86658678  0.91116704  0.01751728     0.15200
H130        H  0.89979909  0.87754577  0.01908474     0.15200
H131        H  0.86313090  0.91799579  0.19470826     0.15200
H132        H  0.89732843  0.88545914  0.19635600     0.15200
H133        H  0.80100722  0.94380239  0.08054308     0.13500
H134        H  0.79858238  0.94345744  0.12788369     0.13500
H135        H  0.92936861  0.81590262  0.08692008     0.13500
H136        H  0.92791121  0.81746233  0.13457952     0.13500
H137        H  0.86704432  0.88190777  0.08788158     0.26800
H138        H  0.86363884  0.88048798  0.12737068     0.26800
N139        N  0.87235720  0.87611815  0.67416861    -0.36000
N140        N  0.84500870  0.85067725  0.63661273    -0.56600
N141        N  0.87087264  0.87788601  0.59984676    -0.36000
N142        N  0.89536744  0.90610466  0.63758892    -0.56600
C143        C  0.85576836  0.86458634  0.68775433     0.27600
C144        C  0.88322962  0.89304021  0.68836080     0.27600
C145        C  0.85367608  0.86687974  0.58619573     0.27600
C146        C  0.87990000  0.89621389  0.58676849     0.27600
C147        C  0.83789632  0.83770110  0.65581435     0.36200
C148        C  0.83791785  0.83817451  0.61672409     0.36200
C149        C  0.90800261  0.91384743  0.65717115     0.36200
C150        C  0.90659138  0.91523499  0.61809215     0.36200
C151        C  0.85640233  0.87410833  0.71098038    -0.21300
C152        C  0.87376042  0.89193675  0.71138513    -0.21300
C153        C  0.85199729  0.87815483  0.56407969    -0.21300
C154        C  0.86860579  0.89659277  0.56440871    -0.21300
C155        C  0.82610344  0.81687404  0.64810428    -0.22300
C156        C  0.82620704  0.81711351  0.62333665    -0.22300
C157        C  0.92713408  0.92828254  0.65007031    -0.22300
C158        C  0.92619625  0.92921073  0.62534029    -0.22300
C159        C  0.84069517  0.84510059  0.68016963    -0.17700
C160        C  0.90196769  0.90901430  0.68142813    -0.17700
C161        C  0.89880670  0.91195529  0.59390271    -0.17700
C162        C  0.83989016  0.84652494  0.59278891    -0.17700
H163        H  0.84556076  0.86872385  0.72616051     0.15200
H164        H  0.87875241  0.90292488  0.72689686     0.15200
H165        H  0.84005883  0.87359560  0.54918067     0.15200
H166        H  0.87192948  0.90890803  0.54981112     0.15200
H167        H  0.81813170  0.80304957  0.65916890     0.13500
H168        H  0.81822341  0.80353592  0.61153602     0.13500
H169        H  0.94033467  0.93731995  0.66151599     0.13500
H170        H  0.93849577  0.93909850  0.61400125     0.13500
H171        H  0.87683788  0.87201077  0.65653855     0.26800
H172        H  0.87690970  0.87244138  0.61661107     0.26800
N173        N  0.86167332  0.68822875  0.87491504    -0.36000
N174        N  0.88985036  0.65105542  0.89925353    -0.56600
N175        N  0.86366240  0.61381961  0.87170430    -0.36000
N176        N  0.83810690  0.65108463  0.84488710    -0.56600
C177        C  0.87753013  0.70236858  0.88740980     0.27600
C178        C  0.85014901  0.70233717  0.85878205     0.27600
C179        C  0.88077038  0.60023802  0.88227623     0.27600
C180        C  0.85376026  0.60029654  0.85377395     0.27600
C181        C  0.89793707  0.67051554  0.91193553     0.36200
C182        C  0.89877483  0.63131519  0.91020749     0.36200
C183        C  0.82591161  0.67047116  0.83683564     0.36200
C184        C  0.82711952  0.63133714  0.83524242     0.36200
C185        C  0.87562022  0.72590461  0.87944809    -0.21300
C186        C  0.85842771  0.72588432  0.86147674    -0.21300
C187        C  0.88146548  0.57770183  0.87116575    -0.21300
C188        C  0.86443557  0.57773657  0.85320951    -0.21300
C189        C  0.91238072  0.66307469  0.93089860    -0.22300
C190        C  0.91286267  0.63828209  0.92983848    -0.22300
C191        C  0.80723877  0.66298394  0.82170508    -0.22300
C192        C  0.80797891  0.63821220  0.82073340    -0.22300
C193        C  0.89345462  0.69494213  0.90607589    -0.17700
C194        C  0.83201405  0.69487475  0.84198127    -0.17700
C195        C  0.83483401  0.60725859  0.83829759    -0.17700
C196        C  0.89542396  0.60715631  0.90208709    -0.17700
H197        H  0.88561757  0.74156321  0.88585180     0.15200
H198        H  0.85274184  0.74152020  0.85149950     0.15200
H199        H  0.89309833  0.56273367  0.87546132     0.15200
H200        H  0.86043756  0.56279016  0.84108232     0.15200
H201        H  0.92171469  0.67433660  0.94406232     0.13500
H202        H  0.92266850  0.62672426  0.94198955     0.13500
H203        H  0.79448475  0.67419738  0.81223927     0.13500
H204        H  0.79593804  0.62660358  0.81035974     0.13500
H205        H  0.85836807  0.67015157  0.87775095     0.26800
H206        H  0.85827888  0.63084857  0.87712765     0.26800
N207        N  0.67849439  0.89582371  0.86920294    -0.36000
N208        N  0.64107560  0.92192207  0.89553561    -0.56600
N209        N  0.60423082  0.89547127  0.86812220    -0.36000
N210        N  0.64159961  0.86736211  0.84400204    -0.56600
C211        C  0.69176231  0.90657512  0.88692133     0.27600
C212        C  0.69205076  0.87794821  0.85953598     0.27600
C213        C  0.59050665  0.90621514  0.88515023     0.27600
C214        C  0.59083983  0.87743615  0.85814108     0.27600
C215        C  0.66061748  0.93457151  0.90333373     0.36200
C216        C  0.62141155  0.93442164  0.90257576     0.36200
C217        C  0.66120261  0.85987033  0.83171992     0.36200
C218        C  0.62207084  0.85948803  0.83140072     0.36200
C219        C  0.71409854  0.89552001  0.88837408    -0.21300
C220        C  0.71432448  0.87758243  0.87106307    -0.21300
C221        C  0.56802920  0.89509692  0.88572221    -0.21300
C222        C  0.56823155  0.87697924  0.86869093    -0.21300
C223        C  0.65333759  0.95523151  0.91549287    -0.22300
C224        C  0.62848666  0.95510097  0.91506553    -0.22300
C225        C  0.65406236  0.84692563  0.81133259    -0.22300
C226        C  0.62926213  0.84669052  0.81113976    -0.22300
C227        C  0.68481073  0.92679769  0.90109989    -0.17700
C228        C  0.68533364  0.86282963  0.83977684    -0.17700
C229        C  0.59791883  0.86219528  0.83890116    -0.17700
C230        C  0.59725716  0.92634140  0.89960164    -0.17700
H231        H  0.72883094  0.90000249  0.90055465     0.15200
H232        H  0.72931793  0.86574709  0.86736582     0.15200
H233        H  0.55292825  0.89961691  0.89713551     0.15200
H234        H  0.55329675  0.86495592  0.86448745     0.15200
H235        H  0.66472536  0.96876003  0.92411595     0.13500
H236        H  0.61694508  0.96848154  0.92331073     0.13500
H237        H  0.66547910  0.83818706  0.79817780     0.13500
H238        H  0.61784141  0.83782208  0.79780466     0.13500
H239        H  0.66168754  0.90128405  0.86313597     0.26800
H240        H  0.62126444  0.90092067  0.86274763     0.26800
N241        N  0.88058489  0.07837024  0.87178533    -0.36000
N242        N  0.85785447  0.11708614  0.89910272    -0.56600
N243        N  0.88581456  0.15209765  0.87168765    -0.36000
N244        N  0.91075618  0.11355802  0.84655521    -0.56600
C245        C  0.86813867  0.06526567  0.88807619     0.27600
C246        C  0.89584319  0.06327024  0.86016226     0.27600
C247        C  0.87709429  0.16600782  0.88968309     0.27600
C248        C  0.90458118  0.16424640  0.86215595     0.27600
C249        C  0.84414931  0.09856646  0.90687606     0.36200
C250        C  0.84690843  0.13754774  0.90643136     0.36200
C251        C  0.91669216  0.09345894  0.83395501     0.36200
C252        C  0.91932254  0.13259164  0.83409755     0.36200
C253        C  0.87534673  0.04140637  0.88649774    -0.21300
C254        C  0.89271089  0.04013758  0.86893880    -0.21300
C255        C  0.89042458  0.18721349  0.89158893    -0.21300
C256        C  0.90788879  0.18602815  0.87428373    -0.21300
C257        C  0.82457745  0.10734124  0.91964062    -0.22300
C258        C  0.82626612  0.13208204  0.91924215    -0.22300
C259        C  0.92955818  0.09979383  0.81360910    -0.22300
C260        C  0.93099812  0.12454960  0.81357647    -0.22300
C261        C  0.84969647  0.07388146  0.90359024    -0.17700
C262        C  0.91160797  0.06944393  0.84102242    -0.17700
C263        C  0.91772873  0.15700520  0.84173723    -0.17700
C264        C  0.85627650  0.16097436  0.90312173    -0.17700
H265        H  0.86860126  0.02632847  0.89671044     0.15200
H266        H  0.90174454  0.02386267  0.86314534     0.15200
H267        H  0.88773559  0.20214780  0.90397454     0.15200
H268        H  0.92129292  0.19980585  0.87079642     0.15200
H269        H  0.81060533  0.09702158  0.92841849     0.13500
H270        H  0.81398115  0.14458710  0.92777176     0.13500
H271        H  0.93712816  0.08787500  0.80011574     0.13500
H272        H  0.93980756  0.13532591  0.80006594     0.13500
H273        H  0.87807581  0.09636996  0.86800414     0.26800
H274        H  0.87817646  0.13618967  0.86508081     0.26800
O275        O  0.25481623  0.55600552  0.21156480    -0.77900
C276        C  0.19174569  0.54888141  0.26359441     0.83200
O277        O  0.27892613  0.51616682  0.28283298    -0.79000
O278        O  0.20169589  0.47328701  0.26879186    -0.80500
O279        O  0.21397928  0.48213201  0.18738313    -0.80300
O280        O  0.26156699  0.52407288  0.18800272    -0.78900
Zn281      Zn  0.24050675  0.54162424  0.24115601     1.55700
O282        O  0.18533437  0.48362337  0.21514003    -0.80300
Cd283      Cd  0.24319316  0.49724093  0.20534627     1.59700
Cd284      Cd  0.25916486  0.49012660  0.26246114     1.59600
O285        O  0.26686712  0.46999260  0.20586829    -0.80300
O286        O  0.23712734  0.50715225  0.23881790    -1.90800
Cd287      Cd  0.20310290  0.49910901  0.24392948     1.59900
O288        O  0.28290942  0.46778611  0.24280374    -0.80300
O289        O  0.18547822  0.52716413  0.25942431    -0.78900
C290        C  0.27905859  0.53908798  0.28041794     0.83600
C291        C  0.26518275  0.54614586  0.19360241     0.83300
O292        O  0.21118226  0.55771252  0.25515670    -0.77900
C293        C  0.19292701  0.47667873  0.19467722     0.84100
O294        O  0.26561992  0.54946102  0.26525853    -0.78000
C295        C  0.28193036  0.46129272  0.22061039     0.84200
C296        C  0.21559469  0.46331063  0.28381768     0.84600
O297        O  0.23815674  0.46822712  0.28520565    -0.80400
O298        O  0.26138313  0.19713851  0.51897452    -0.77900
C299        C  0.20122976  0.20063741  0.46503620     0.83200
O300        O  0.28653954  0.25064904  0.45854887    -0.79000
O301        O  0.20604480  0.27518634  0.46047999    -0.80500
O302        O  0.20852368  0.26706489  0.54506579    -0.80300
O303        O  0.25109298  0.21986950  0.55046638    -0.78900
Zn304      Zn  0.24812410  0.21353544  0.49017576     1.55700
O305        O  0.18570313  0.26772017  0.51197642    -0.80300
Cd306      Cd  0.23932129  0.25018543  0.53274563     1.59700
Cd307      Cd  0.26249638  0.26973761  0.48121436     1.59600
O308        O  0.26468135  0.27506787  0.54153218    -0.80300
O309        O  0.23980671  0.24608640  0.49730344    -1.90800
Cd310      Cd  0.20628262  0.25054895  0.48661904     1.59900
O311        O  0.28200498  0.28865395  0.50804158    -0.80300
O312        O  0.19128117  0.22053060  0.47058853    -0.78900
C313        C  0.28750046  0.22781913  0.45519983     0.83600
C314        C  0.26196458  0.20171037  0.54147876     0.83300
O315        O  0.22212498  0.19527141  0.47276715    -0.77900
C316        C  0.19010056  0.27447820  0.53354000     0.84100
O317        O  0.27405807  0.21341311  0.46657315    -0.78000
C318        C  0.27968060  0.28857001  0.53094093     0.84200
C319        C  0.21981736  0.29190421  0.45334687     0.84600
O320        O  0.24177617  0.29404909  0.46044633    -0.80400
O321        O  0.51438143  0.78777090  0.80013958    -0.77900
C322        C  0.44775160  0.73988534  0.79834701     0.83200
O323        O  0.53573873  0.72226516  0.75233123    -0.79000
O324        O  0.45318262  0.72424938  0.72729825    -0.80500
O325        O  0.46320159  0.81304999  0.73190341    -0.80300
O326        O  0.51307823  0.81545807  0.77168589    -0.78900
Zn327      Zn  0.49759408  0.75876527  0.78547142     1.55700
O328        O  0.44032864  0.78056600  0.72508649    -0.80300
Cd329      Cd  0.49391441  0.79694272  0.74525024     1.59700
Cd330      Cd  0.51110479  0.74102729  0.73038607     1.59600
O331        O  0.51541390  0.79925361  0.71656525    -0.80300
O332        O  0.49035774  0.76225125  0.75201889    -1.90800
Cd333      Cd  0.45594989  0.75503344  0.74687437     1.59900
O334        O  0.52930048  0.76310586  0.70546511    -0.80300
O335        O  0.43849758  0.74602494  0.77824887    -0.78900
C336        C  0.53677848  0.72216869  0.77535614     0.83600
C337        C  0.52083011  0.80815358  0.79196381     0.83300
O338        O  0.46964129  0.74484279  0.80368703    -0.77900
C339        C  0.44572092  0.80249235  0.72098092     0.84100
O340        O  0.52278481  0.73468074  0.78828114    -0.78000
C341        C  0.52788817  0.78595865  0.70284467     0.84200
C342        C  0.46659150  0.71095188  0.71445368     0.84600
O343        O  0.48918964  0.71514480  0.71213868    -0.80400
O344        O  0.18967387  0.73662863  0.98546891    -0.77900
C345        C  0.19823114  0.77930773  0.05513088     0.83200
O346        O  0.23834860  0.79548622  0.96390885    -0.79000
O347        O  0.27428823  0.78716851  0.04501594    -0.80500
O348        O  0.25257702  0.70148016  0.03291721    -0.80300
O349        O  0.21651710  0.70728653  0.98267365    -0.78900
Zn350      Zn  0.20702213  0.76214548  0.00454967     1.55700
O351        O  0.26464319  0.73130651  0.05740498    -0.80300
Cd352      Cd  0.24422929  0.72086825  0.00303558     1.59700
Cd353      Cd  0.26120571  0.77490513  0.98630110     1.59600
O354        O  0.27311551  0.71550491  0.98180263    -0.80300
O355        O  0.24042904  0.75560666  0.00893035    -1.90800
Cd356      Cd  0.24851654  0.76121472  0.04310711     1.59900
O357        O  0.28263732  0.75087950  0.96545840    -0.80300
O358        O  0.21975151  0.77511638  0.06206762    -0.78900
C359        C  0.21595706  0.79995367  0.96711671     0.83600
C360        C  0.19664496  0.71673127  0.97643290     0.83300
O361        O  0.19060562  0.77274536  0.03440957    -0.77900
C362        C  0.26487315  0.70923018  0.05084287     0.84100
O363        O  0.20380730  0.78965998  0.98330267    -0.78000
C364        C  0.28538010  0.72803876  0.96734629     0.84200
C365        C  0.28591932  0.80018408  0.03040595     0.84600
O366        O  0.28321423  0.79842230  0.00750077    -0.80400
O367        O  0.02262330  0.50326018  0.04834643    -0.77900
C368        C  0.96907185  0.56471645  0.04001681     0.83200
O369        O  0.95613708  0.47450965  0.00321367    -0.79000
O370        O  0.96465144  0.55393891  0.96473111    -0.80500
O371        O  0.04871792  0.54540329  0.97886846    -0.80300
O372        O  0.04623423  0.49521684  0.01720108    -0.78900
Zn373      Zn  0.99351606  0.51673548  0.03180528     1.55700
O374        O  0.01850989  0.57105828  0.97342201    -0.80300
Cd375      Cd  0.03071794  0.51539799  0.99067034     1.59700
Cd376      Cd  0.97540196  0.49651445  0.97872003     1.59600
O377        O  0.03332884  0.49349879  0.96179645    -0.80300
O378        O  0.99654487  0.52026472  0.99775610    -1.90800
Cd379      Cd  0.99004149  0.55424871  0.99051687     1.59900
O380        O  0.99781345  0.47499385  0.95632443    -0.80300
O381        O  0.97381146  0.57216406  0.01892087    -0.78900
C382        C  0.95776671  0.47520107  0.02623780     0.83600
C383        C  0.03987902  0.49156749  0.03883969     0.83300
O384        O  0.97734925  0.54484119  0.04764416    -0.77900
C385        C  0.04008279  0.56433451  0.96944725     0.84100
O386        O  0.97101786  0.49044945  0.03717245    -0.78000
C387        C  0.02018553  0.47779717  0.95131263     0.84200
C388        C  0.95119338  0.53921352  0.95324243     0.84600
O389        O  0.95167665  0.51641806  0.95661653    -0.80400
O390        O  0.30642142  0.02271260  0.77415779    -0.77900
C391        C  0.29810775  0.95727914  0.72543220     0.83200
O392        O  0.24824452  0.04391851  0.71839140    -0.79000
O393        O  0.22688101  0.96148935  0.72422676    -0.80500
O394        O  0.23732210  0.97550316  0.80945757    -0.80300
O395        O  0.28407512  0.01969729  0.80713445    -0.78900
Zn396      Zn  0.28779859  0.00599438  0.74806158     1.55700
O397        O  0.23482060  0.94772694  0.78005378    -0.80300
Cd398      Cd  0.25308332  0.00458925  0.79271155     1.59700
Cd399      Cd  0.23098073  0.01913698  0.74026314     1.59600
O400        O  0.22851042  0.03093319  0.79867171    -0.80300
O401        O  0.25575441  0.99898653  0.75775447    -1.90800
Cd402      Cd  0.25106281  0.96435057  0.75140433     1.59900
O403        O  0.20910960  0.03782927  0.76417208    -0.80300
O404        O  0.28008498  0.94747934  0.73563316    -0.78900
C405        C  0.27065173  0.04420788  0.71356573     0.83600
C406        C  0.30227338  0.02818314  0.79605316     0.83300
O407        O  0.30408790  0.97905962  0.73000162    -0.77900
C408        C  0.22942556  0.95542589  0.80105208     0.84100
O409        O  0.28560734  0.03043744  0.72365694    -0.78000
C410        C  0.21214839  0.04141673  0.78670653     0.84200
C411        C  0.21236385  0.97496355  0.71300791     0.84600
O412        O  0.21024049  0.99739516  0.71761324    -0.80400
O413        O  0.68253091  0.73257305  0.47800530    -0.77900
C414        C  0.69007565  0.77798888  0.54489261     0.83200
O415        O  0.73875443  0.79232918  0.45985777    -0.79000
O416        O  0.76214961  0.78383359  0.54107992    -0.80500
O417        O  0.75243350  0.69794666  0.52533426    -0.80300
O418        O  0.70409982  0.69950257  0.48323937    -0.78900
Zn419      Zn  0.70089312  0.75869496  0.49516360     1.55700
O420        O  0.75874266  0.72770599  0.55195523    -0.80300
Cd421      Cd  0.73505482  0.71512048  0.49754089     1.59700
Cd422      Cd  0.75722539  0.76882314  0.48289220     1.59600
O423        O  0.75887045  0.70995082  0.47091266    -0.80300
O424        O  0.73308675  0.75021218  0.50276300    -1.90800
Cd425      Cd  0.73890943  0.75576531  0.53745885     1.59900
O426        O  0.77781589  0.74453499  0.46277612    -0.80300
O427        O  0.70878200  0.76904665  0.55482708    -0.78900
C428        C  0.71613796  0.79654841  0.45948970     0.83600
C429        C  0.68614547  0.71030484  0.47391894     0.83300
O430        O  0.68471335  0.77354692  0.52301416    -0.77900
C431        C  0.76338069  0.70664582  0.54377392     0.84100
O432        O  0.70136786  0.78499777  0.47230127    -0.78000
C433        C  0.77483766  0.72182881  0.45982326     0.84200
C434        C  0.77755564  0.79442414  0.52807034     0.84600
O435        O  0.77963737  0.78984977  0.50557039    -0.80400
O436        O  0.01425504  0.78179938  0.30765605    -0.77900
C437        C  0.94645939  0.73658215  0.30281512     0.83200
O438        O  0.02709302  0.71728145  0.25134378    -0.79000
O439        O  0.94457583  0.73730944  0.22661168    -0.80500
O440        O  0.96863801  0.81528850  0.23706505    -0.80300
O441        O  0.01004606  0.81347113  0.28398234    -0.78900
Zn442      Zn  0.99633916  0.75492643  0.29040810     1.55700
O443        O  0.93647439  0.79168009  0.24139342    -0.80300
Cd444      Cd  0.99572006  0.79688816  0.25397213     1.59700
Cd445      Cd  0.00442763  0.74148942  0.23355814     1.59600
O446        O  0.02255969  0.79875952  0.23000535    -0.80300
O447        O  0.98754479  0.76272135  0.25808201    -1.90800
Cd448      Cd  0.95214316  0.76055201  0.25414222     1.59900
O449        O  0.02514641  0.76313229  0.21097860    -0.80300
O450        O  0.93675002  0.74476123  0.28371299    -0.78900
C451        C  0.03017687  0.71512910  0.27401190     0.83600
C452        C  0.01881085  0.80371133  0.30267667     0.83300
O453        O  0.96846547  0.74084531  0.30813877    -0.77900
C454        C  0.94656768  0.81036200  0.23276997     0.84100
O455        O  0.01951538  0.72841513  0.28924188    -0.78000
C456        C  0.03098338  0.78532429  0.21352919     0.84200
C457        C  0.95605154  0.72376888  0.21219051     0.84600
O458        O  0.97904021  0.72225563  0.21257209    -0.80400
O459        O  0.55649808  0.03780091  0.98517131    -0.77900
C460        C  0.54102218  0.99067449  0.04909540     0.83200
O461        O  0.50416576  0.97668982  0.95689111    -0.79000
O462        O  0.46948716  0.98832669  0.03716908    -0.80500
O463        O  0.47798640  0.06998429  0.01957337    -0.80300
O464        O  0.53252836  0.06963003  0.98821392    -0.78900
Zn465      Zn  0.53682213  0.01030464  0.99844153     1.55700
O466        O  0.47697152  0.04383584  0.04954609    -0.80300
Cd467      Cd  0.50016312  0.05300493  0.99493591     1.59700
Cd468      Cd  0.48157858  0.99868768  0.97875238     1.59600
O469        O  0.48202912  0.05717430  0.96363617    -0.80300
O470        O  0.50336686  0.01831515  0.00118895    -1.90800
Cd471      Cd  0.49460302  0.01458623  0.03533779     1.59900
O472        O  0.46211507  0.02272361  0.95623007    -0.80300
O473        O  0.52167845  0.00065056  0.05614473    -0.78900
C474        C  0.52709247  0.97398390  0.95820871     0.83600
C475        C  0.55207587  0.05992691  0.98121394     0.83300
O476        O  0.54934892  0.99418571  0.02809448    -0.77900
C477        C  0.47000109  0.06330893  0.03990873     0.84100
O478        O  0.53998647  0.98536207  0.97349823    -0.78000
C479        C  0.46643099  0.04499643  0.95184518     0.84200
C480        C  0.45663704  0.97551999  0.02299947     0.84600
O481        O  0.45799649  0.97711083  0.00000318    -0.80400
C482        C  0.29127985  0.78411741  0.29088758     0.80800
N483        N  0.27205894  0.79513579  0.30125949    -0.77500
C484        C  0.26310145  0.81606185  0.29242559     0.83300
N485        N  0.27375673  0.82604956  0.27288152    -0.77400
C486        C  0.29306078  0.81543110  0.26216630     0.83400
N487        N  0.30167975  0.79448273  0.27136614    -0.79100
N488        N  0.36922538  0.69190052  0.36322424    -0.36000
N489        N  0.33879136  0.65616772  0.33818834    -0.56600
N490        N  0.36439643  0.61779687  0.36339502    -0.36000
N491        N  0.39678554  0.65330946  0.38625756    -0.56600
C492        C  0.35680052  0.70655121  0.34827947     0.27600
C493        C  0.38739729  0.70502961  0.37341981     0.27600
C494        C  0.35173664  0.60459204  0.34694040     0.27600
C495        C  0.38123980  0.60314958  0.37301450     0.27600
C496        C  0.32714845  0.67630918  0.33117600     0.36200
C497        C  0.32534756  0.63707398  0.33051967     0.36200
C498        C  0.40716301  0.67251207  0.39759294     0.36200
C499        C  0.40416376  0.63339500  0.39802542     0.36200
C500        C  0.36711502  0.72942844  0.34928054    -0.21300
C501        C  0.38633520  0.72845526  0.36502293    -0.21300
C502        C  0.36052813  0.58122237  0.34631980    -0.21300
C503        C  0.37900397  0.58028628  0.36281222    -0.21300
C504        C  0.30622511  0.66991904  0.31874470    -0.22300
C505        C  0.30509855  0.64510399  0.31832804    -0.22300
C506        C  0.42169940  0.66466926  0.41632871    -0.22300
C507        C  0.41974514  0.63992600  0.41663644    -0.22300
C508        C  0.33585587  0.70029356  0.33448167    -0.17700
C509        C  0.40411027  0.69699986  0.39110523    -0.17700
C510        C  0.39780253  0.60934714  0.39161010    -0.17700
C511        C  0.33179155  0.61252318  0.33313469    -0.17700
H512        H  0.36130011  0.74537639  0.33989960     0.15200
H513        H  0.39800692  0.74346913  0.36992123     0.15200
H514        H  0.35417744  0.56623769  0.33527730     0.15200
H515        H  0.38952650  0.56445577  0.36682303     0.15200
H516        H  0.29327646  0.68185641  0.31052136     0.13500
H517        H  0.29111978  0.63421749  0.30978795     0.13500
H518        H  0.43254534  0.67562291  0.42856326     0.13500
H519        H  0.42884561  0.62809747  0.42906256     0.13500
H520        H  0.36485631  0.67428003  0.36716796     0.26800
H521        H  0.36088189  0.63534090  0.36877186     0.26800
C522        C  0.48890866  0.96562285  0.29138205     0.80800
N523        N  0.47990494  0.98583608  0.30206506    -0.77500
C524        C  0.46024517  0.99709316  0.29281904     0.83300
N525        N  0.44961932  0.98786325  0.27249066    -0.77400
C526        C  0.45829122  0.96768015  0.26144747     0.83400
N527        N  0.47792551  0.95664696  0.27113553    -0.79100
N528        N  0.57363982  0.88453722  0.36877274    -0.36000
N529        N  0.60957799  0.85973482  0.39828790    -0.56600
N530        N  0.64768339  0.88657206  0.37466305    -0.36000
N531        N  0.61155147  0.91424508  0.34807454    -0.56600
C532        C  0.55904640  0.87293525  0.38435059     0.27600
C533        C  0.56010865  0.90109259  0.35721001     0.27600
C534        C  0.66038779  0.87587799  0.39235266     0.27600
C535        C  0.66141564  0.90485588  0.36651973     0.27600
C536        C  0.58979026  0.84691608  0.40440560     0.36200
C537        C  0.62883478  0.84748937  0.40666994     0.36200
C538        C  0.59283401  0.92160251  0.33427025     0.36200
C539        C  0.63187954  0.92285472  0.33783903     0.36200
C540        C  0.53584877  0.88197957  0.38236735    -0.21300
C541        C  0.53651661  0.89969933  0.36528951    -0.21300
C542        C  0.68253151  0.88733234  0.39534766    -0.21300
C543        C  0.68314604  0.90571790  0.37908909    -0.21300
C544        C  0.59648950  0.82662363  0.41709876    -0.22300
C545        C  0.62124614  0.82694463  0.41846089    -0.22300
C546        C  0.60129178  0.93527458  0.31534993    -0.22300
C547        C  0.62601437  0.93602231  0.31756764    -0.22300
C548        C  0.56570940  0.85375806  0.39964728    -0.17700
C549        C  0.56816010  0.91695316  0.33903919    -0.17700
C550        C  0.65556987  0.91990147  0.34711300    -0.17700
C551        C  0.65306756  0.85536199  0.40510226    -0.17700
H552        H  0.52000519  0.87637038  0.39216957     0.15200
H553        H  0.52129943  0.91036684  0.35952384     0.15200
H554        H  0.69680290  0.88287866  0.40790070     0.15200
H555        H  0.69801706  0.91817967  0.37666340     0.15200
H556        H  0.58476178  0.81302715  0.42463401     0.13500
H557        H  0.63236474  0.81372002  0.42734364     0.13500
H558        H  0.59075549  0.94380804  0.30139868     0.13500
H559        H  0.63824770  0.94525781  0.30563203     0.13500
H560        H  0.59152981  0.88060261  0.36542789     0.26800
H561        H  0.63129607  0.88078912  0.36750649     0.26800
N562        N  0.37442452  0.89207443  0.17462731    -0.36000
N563        N  0.34355055  0.86839615  0.13844225    -0.56600
N564        N  0.36750685  0.89628744  0.10049141    -0.36000
N565        N  0.39896458  0.91948295  0.13676378    -0.56600
C566        C  0.35944215  0.87980193  0.18941655     0.27600
C567        C  0.38896854  0.90626293  0.18858841     0.27600
C568        C  0.35510956  0.88002857  0.08673657     0.27600
C569        C  0.38333635  0.90757277  0.08585858     0.27600
C570        C  0.33350550  0.85861646  0.15824438     0.36200
C571        C  0.33166972  0.85905068  0.11909939     0.36200
C572        C  0.41125070  0.92851670  0.15606770     0.36200
C573        C  0.40813367  0.93007724  0.11693296     0.36200
C574        C  0.36493057  0.88594415  0.21313019    -0.21300
C575        C  0.38344639  0.90252757  0.21261944    -0.21300
C576        C  0.36269275  0.88157114  0.06303675    -0.21300
C577        C  0.38034301  0.89891294  0.06247144    -0.21300
C578        C  0.31498601  0.84300773  0.15140950    -0.22300
C579        C  0.31381931  0.84328756  0.12668272    -0.22300
C580        C  0.42846363  0.94491487  0.14840114    -0.22300
C581        C  0.42643260  0.94597657  0.12372130    -0.22300
C582        C  0.34074623  0.86335900  0.18243814    -0.17700
C583        C  0.40699910  0.92270411  0.18058441    -0.17700
C584        C  0.40096211  0.92504243  0.09270237    -0.17700
C585        C  0.33736547  0.86343616  0.09463314    -0.17700
H586        H  0.35630962  0.87939286  0.22923382     0.15200
H587        H  0.39169868  0.91105741  0.22828624     0.15200
H588        H  0.35652312  0.87096978  0.04767650     0.15200
H589        H  0.39030981  0.90403211  0.04661991     0.15200
H590        H  0.30354883  0.83241593  0.16300220     0.13500
H591        H  0.30134916  0.83289931  0.11555624     0.13500
H592        H  0.44113565  0.95514871  0.15943930     0.13500
H593        H  0.43735076  0.95708113  0.11211517     0.13500
H594        H  0.37494571  0.89068248  0.15611223     0.26800
H595        H  0.36507975  0.89970680  0.11865902     0.26800
C596        C  0.26420999  0.97274682  0.44992510     0.80800
N597        N  0.27537530  0.99143822  0.43881056    -0.77500
C598        C  0.29713595  0.99984903  0.44680565     0.83300
N599        N  0.30779093  0.98908254  0.46601873    -0.77400
C600        C  0.29697156  0.97030399  0.47728444     0.83400
N601        N  0.27518251  0.96230473  0.46907195    -0.79100
C602        C  0.45295709  0.80572529  0.47215966     0.80800
N603        N  0.47363456  0.81532609  0.46322515    -0.77500
C604        C  0.48451360  0.80542982  0.44362153     0.83300
N605        N  0.47436526  0.78565838  0.43279796    -0.77400
C606        C  0.45373986  0.77565877  0.44140358     0.83400
N607        N  0.44315970  0.78589495  0.46107862    -0.79100
N608        N  0.37506856  0.88666093  0.55997595    -0.36000
N609        N  0.34690087  0.91032572  0.59807790    -0.56600
N610        N  0.37304154  0.88228487  0.63371426    -0.36000
N611        N  0.39865570  0.85609448  0.59571590    -0.56600
C612        C  0.35985010  0.89988317  0.54631657     0.27600
C613        C  0.38694216  0.87128731  0.54509844     0.27600
C614        C  0.35568110  0.89218007  0.64760232     0.27600
C615        C  0.38264786  0.86394259  0.64628852     0.27600
C616        C  0.33923112  0.92349644  0.57920498     0.36200
C617        C  0.33843601  0.92117716  0.61826528     0.36200
C618        C  0.41115058  0.84903213  0.57604445     0.36200
C619        C  0.41019490  0.84699120  0.61511185     0.36200
C620        C  0.36238138  0.89301073  0.52233956    -0.21300
C621        C  0.37942493  0.87511064  0.52157337    -0.21300
C622        C  0.35440463  0.88008860  0.66928708    -0.21300
C623        C  0.37126866  0.86220283  0.66839057    -0.21300
C624        C  0.32540070  0.94261138  0.58749144    -0.22300
C625        C  0.32492852  0.94114492  0.61221350    -0.22300
C626        C  0.43052781  0.83495291  0.58299500    -0.22300
C627        C  0.43001476  0.83380962  0.60774076    -0.22300
C628        C  0.34406618  0.91835516  0.55457147    -0.17700
C629        C  0.40494230  0.85441802  0.55185913    -0.17700
C630        C  0.40247789  0.84967236  0.63926592    -0.17700
C631        C  0.34183470  0.91265626  0.64197755    -0.17700
H632        H  0.35292959  0.90011952  0.50688213     0.15200
H633        H  0.38560331  0.86601865  0.50542253     0.15200
H634        H  0.34265411  0.88378801  0.68434457     0.15200
H635        H  0.37491596  0.84950730  0.68259284     0.15200
H636        H  0.31659648  0.95625180  0.57685296     0.13500
H637        H  0.31557565  0.95327195  0.62432230     0.13500
H638        H  0.44374186  0.82647268  0.57146485     0.13500
H639        H  0.44267623  0.82423275  0.61898286     0.13500
H640        H  0.37775799  0.88858531  0.57830254     0.26800
H641        H  0.37916666  0.88874065  0.61741861     0.26800
N642        N  0.38179935  0.08440790  0.37151974    -0.36000
N643        N  0.35293417  0.12160199  0.39533656    -0.56600
N644        N  0.38111297  0.15881909  0.37162259    -0.36000
N645        N  0.40767605  0.12135228  0.34523138    -0.56600
C646        C  0.36429738  0.07055686  0.38130675     0.27600
C647        C  0.39408557  0.07041197  0.35571287     0.27600
C648        C  0.36287028  0.17195673  0.38094669     0.27600
C649        C  0.39048341  0.17169524  0.35338674     0.27600
C650        C  0.34481642  0.10202387  0.40718082     0.36200
C651        C  0.34540488  0.14114066  0.40793294     0.36200
C652        C  0.42090936  0.10207931  0.33833278     0.36200
C653        C  0.41923882  0.14118525  0.33716936     0.36200
C654        C  0.36569989  0.04735464  0.37182513    -0.21300
C655        C  0.38446811  0.04725265  0.35574915    -0.21300
C656        C  0.36081404  0.19349271  0.36874180    -0.21300
C657        C  0.37820490  0.19331521  0.35129916    -0.21300
C658        C  0.33179670  0.10917109  0.42723386    -0.22300
C659        C  0.33232493  0.13393609  0.42781367    -0.22300
C660        C  0.44096830  0.10972265  0.32566956    -0.22300
C661        C  0.43988595  0.13449586  0.32489185    -0.22300
C662        C  0.34799722  0.07780785  0.39955860    -0.17700
C663        C  0.41419904  0.07765630  0.34178027    -0.17700
C664        C  0.41037884  0.16503066  0.33911164    -0.17700
C665        C  0.34836995  0.16532556  0.40056037    -0.17700
H666        H  0.35453554  0.03196162  0.37620215     0.15200
H667        H  0.39038934  0.03179245  0.34533952     0.15200
H668        H  0.34797852  0.20778209  0.37193309     0.15200
H669        H  0.38139313  0.20752516  0.33849314     0.15200
H670        H  0.32278877  0.09774900  0.44007968     0.13500
H671        H  0.32372088  0.14533034  0.44113641     0.13500
H672        H  0.45471022  0.09859344  0.31749057     0.13500
H673        H  0.45263601  0.14621909  0.31601620     0.13500
H674        H  0.38588497  0.10207522  0.37624585     0.26800
H675        H  0.38753919  0.14258330  0.37811246     0.26800
N676        N  0.17661450  0.89379961  0.37448304    -0.36000
N677        N  0.13937770  0.91261784  0.40688519    -0.56600
N678        N  0.10382106  0.88373179  0.38096940    -0.36000
N679        N  0.14121490  0.86228193  0.35108022    -0.56600
C680        C  0.19032984  0.90599032  0.39085189     0.27600
C681        C  0.19139659  0.87887914  0.36202699     0.27600
C682        C  0.09091049  0.89108089  0.40019702     0.27600
C683        C  0.09192464  0.86471666  0.37113211     0.27600
C684        C  0.15770330  0.92763054  0.41313369     0.36200
C685        C  0.11913800  0.92217033  0.41640979     0.36200
C686        C  0.16027139  0.85759571  0.33679096     0.36200
C687        C  0.12154665  0.85299608  0.33976013     0.36200
C688        C  0.21421516  0.89902185  0.38849629    -0.21300
C689        C  0.21488411  0.88196545  0.37034354    -0.21300
C690        C  0.07062878  0.87660953  0.40263987    -0.21300
C691        C  0.07124307  0.85994518  0.38424485    -0.21300
C692        C  0.14914670  0.94658414  0.42710246    -0.22300
C693        C  0.12465844  0.94315775  0.42911248    -0.22300
C694        C  0.15272670  0.84489646  0.31639849    -0.22300
C695        C  0.12810944  0.84210922  0.31821621    -0.22300
C696        C  0.18217597  0.92396817  0.40720986    -0.17700
C697        C  0.18451472  0.86322055  0.34275032    -0.17700
C698        C  0.09810727  0.85281714  0.34954350    -0.17700
C699        C  0.09594318  0.91159157  0.41450826    -0.17700
H700        H  0.22963535  0.90556801  0.39876687     0.15200
H701        H  0.23091939  0.87297088  0.36393619     0.15200
H702        H  0.05665379  0.87813688  0.41608277     0.15200
H703        H  0.05776250  0.84612351  0.38072977     0.15200
H704        H  0.15946163  0.96136451  0.43496971     0.13500
H705        H  0.11236713  0.95472923  0.43885938     0.13500
H706        H  0.16381315  0.83820719  0.30183795     0.13500
H707        H  0.11646222  0.83274616  0.30542006     0.13500
H708        H  0.15840569  0.89642101  0.37130013     0.26800
H709        H  0.11875500  0.89236230  0.37382147     0.26800
O710        O  0.68689775  0.03365282  0.26484393    -0.77900
C711        C  0.69612292  0.98268605  0.20480140     0.83200
O712        O  0.74506049  0.97407018  0.28963165    -0.79000
O713        O  0.77016260  0.98765321  0.20482374    -0.80500
O714        O  0.75169055  0.06961763  0.22337437    -0.80300
O715        O  0.71398553  0.06267386  0.27165796    -0.78900
Zn716      Zn  0.70698368  0.00656903  0.25279602     1.55700
O717        O  0.75379583  0.04192143  0.19409154    -0.80300
Cd718      Cd  0.74275903  0.04970710  0.25276281     1.59700
Cd719      Cd  0.76323540  0.99513426  0.26429889     1.59600
O720        O  0.77181895  0.05451267  0.27438139    -0.80300
O721        O  0.73923812  0.01508102  0.24544699    -1.90800
Cd722      Cd  0.74268427  0.01071487  0.21036553     1.59900
O723        O  0.78713475  0.01843639  0.28303321    -0.80300
O724        O  0.71383945  0.99283591  0.19441177    -0.78900
C725        C  0.72237883  0.97394272  0.29339256     0.83600
C726        C  0.69313285  0.05358018  0.27468078     0.83300
O727        O  0.69149644  0.98699223  0.22679749    -0.77900
C728        C  0.75761653  0.06321699  0.20217591     0.84100
O729        O  0.70779613  0.98562598  0.28046499    -0.78000
C730        C  0.78744046  0.04145991  0.28459366     0.84200
C731        C  0.78341064  0.97387259  0.21719854     0.84600
O732        O  0.78253750  0.97313249  0.24019126    -0.80400
O733        O  0.81022596  0.24558768  0.96783715    -0.77900
C734        C  0.80345651  0.31126531  0.01526313     0.83200
O735        O  0.75202566  0.22579664  0.02434861    -0.79000
O736        O  0.73141402  0.30733892  0.01531996    -0.80500
O737        O  0.74024125  0.29220796  0.93161110    -0.80300
O738        O  0.78964612  0.25122379  0.93389484    -0.78900
Zn739      Zn  0.79186394  0.26238387  0.99351293     1.55700
O740        O  0.73867211  0.32055853  0.96031907    -0.80300
Cd741      Cd  0.75796687  0.26416614  0.94829354     1.59700
Cd742      Cd  0.73510806  0.24952905  0.00061839     1.59600
O743        O  0.73490824  0.23632666  0.94189658    -0.80300
O744        O  0.76014400  0.26964023  0.98335227    -1.90800
Cd745      Cd  0.75591190  0.30441479  0.98904142     1.59900
O746        O  0.71441216  0.22986255  0.97569656    -0.80300
O747        O  0.78532670  0.32134008  0.00542121    -0.78900
C748        C  0.77446102  0.22571721  0.02954848     0.83600
C749        C  0.80712469  0.24176770  0.94540582     0.83300
O750        O  0.80868090  0.28945172  0.01058071    -0.77900
C751        C  0.73229173  0.31225468  0.93967928     0.84100
O752        O  0.78949022  0.23895617  0.01882539    -0.78000
C753        C  0.71823113  0.22583802  0.95336332     0.84200
C754        C  0.71594562  0.29438022  0.02587669     0.84600
O755        O  0.71332154  0.27189502  0.02142503    -0.80400
C756        C  0.28811620  0.27598250  0.79748065     0.80800
N757        N  0.26899464  0.28672932  0.80832073    -0.77500
C758        C  0.25923965  0.30716114  0.79918589     0.83300
N759        N  0.26917961  0.31702633  0.77918601    -0.77400
C760        C  0.28845753  0.30663141  0.76822944     0.83400
N761        N  0.29774577  0.28611059  0.77754924    -0.79100
C762        C  0.48258346  0.31279670  0.95051406     0.80800
N763        N  0.47289052  0.32311873  0.97055191    -0.77500
C764        C  0.45240352  0.31404908  0.98045931     0.83300
N765        N  0.44155063  0.29444625  0.96995887    -0.77400
C766        C  0.45096446  0.28398828  0.94986400     0.83400
N767        N  0.47142592  0.29332003  0.94036127    -0.79100
C768        C  0.44588536  0.46582248  0.76003983     0.80800
N769        N  0.46560769  0.45588959  0.77068042    -0.77500
C770        C  0.47567103  0.46586519  0.79092118     1.05700
N771        N  0.46555015  0.48609076  0.80055808    -0.77400
C772        C  0.44578215  0.49637020  0.79025211     0.83400
N773        N  0.43605495  0.48601200  0.77000748    -0.79100
C774        C  0.25946545  0.46425850  0.95730370     0.80800
N775        N  0.27056480  0.48302994  0.94612284    -0.77500
C776        C  0.29165703  0.49251861  0.95488754     0.83300
N777        N  0.30161085  0.48283733  0.97498131    -0.77400
C778        C  0.29095040  0.46407260  0.98641194     0.83400
N779        N  0.26988399  0.45488421  0.97738844    -0.79100
N780        N  0.36765482  0.58029170  0.87199963    -0.36000
N781        N  0.34355244  0.61559356  0.90344867    -0.56600
N782        N  0.36655179  0.65455364  0.87706280    -0.36000
N783        N  0.39349748  0.61925617  0.84808763    -0.56600
C784        C  0.35777570  0.56532753  0.88840592     0.27600
C785        C  0.38361936  0.56732040  0.85884092     0.27600
C786        C  0.35634837  0.66721377  0.89526247     0.27600
C787        C  0.38325173  0.66908363  0.86698905     0.27600
C788        C  0.33262216  0.59526415  0.91124011     0.36200
C789        C  0.33155588  0.63443215  0.91334246     0.36200
C790        C  0.40087946  0.60063542  0.83401270     0.36200
C791        C  0.40086130  0.63979057  0.83735938     0.36200
C792        C  0.36737384  0.54246147  0.88541020    -0.21300
C793        C  0.38360902  0.54370528  0.86682963    -0.21300
C794        C  0.36647780  0.69012676  0.89655941    -0.21300
C795        C  0.38343979  0.69130370  0.87876923    -0.21300
C796        C  0.31385261  0.60125097  0.92653554    -0.22300
C797        C  0.31312242  0.62601110  0.92778620    -0.22300
C798        C  0.41326782  0.60941271  0.81432668    -0.22300
C799        C  0.41326419  0.63418958  0.81644879    -0.22300
C800        C  0.33968441  0.57133323  0.90544269    -0.17700
C801        C  0.39768602  0.57583064  0.83932624    -0.17700
C802        C  0.39759274  0.66345132  0.84675603    -0.17700
C803        C  0.33762770  0.65910866  0.91036253    -0.17700
H804        H  0.36309252  0.52645335  0.89552493     0.15200
H805        H  0.39416644  0.52881243  0.85997462     0.15200
H806        H  0.36216657  0.70454349  0.90908782     0.15200
H807        H  0.39459114  0.70685966  0.87492628     0.15200
H808        H  0.30189765  0.58905295  0.93584431     0.13500
H809        H  0.30054129  0.63658284  0.93826301     0.13500
H810        H  0.42158324  0.59904480  0.80002080     0.13500
H811        H  0.42156802  0.64664834  0.80409349     0.13500
H812        H  0.36294103  0.59802857  0.86922899     0.26800
H813        H  0.36152336  0.63751623  0.87104943     0.26800
N814        N  0.56629863  0.38859012  0.86943337    -0.36000
N815        N  0.60556809  0.36170134  0.89309976    -0.56600
N816        N  0.64031294  0.38730163  0.86390175    -0.36000
N817        N  0.60098410  0.41158344  0.83783590    -0.56600
C818        C  0.55321331  0.37336365  0.88310184     0.27600
C819        C  0.55082292  0.39994991  0.85437757     0.27600
C820        C  0.65463993  0.37032137  0.87375923     0.27600
C821        C  0.65233240  0.39648253  0.84497947     0.27600
C822        C  0.58692457  0.35423241  0.90673347     0.36200
C823        C  0.62599336  0.35373310  0.90378559     0.36200
C824        C  0.58099118  0.42367811  0.83086711     0.36200
C825        C  0.62015459  0.42300240  0.82806202     0.36200
C826        C  0.52898962  0.37537168  0.87686884    -0.21300
C827        C  0.52750407  0.39208027  0.85883698    -0.21300
C828        C  0.67608245  0.36896506  0.86110698    -0.21300
C829        C  0.67452484  0.38524853  0.84284815    -0.21300
C830        C  0.59556539  0.34106913  0.92602989    -0.22300
C831        C  0.62031469  0.34081975  0.92419274    -0.22300
C832        C  0.58746539  0.44262948  0.81619336    -0.22300
C833        C  0.61220919  0.44235617  0.81459901    -0.22300
C834        C  0.56217098  0.35822045  0.90159385    -0.17700
C835        C  0.55690897  0.41771258  0.83716510    -0.17700
C836        C  0.64461341  0.41565864  0.83031118    -0.17700
C837        C  0.64953609  0.35678445  0.89452900    -0.17700
H838        H  0.51382149  0.36589647  0.88458514     0.15200
H839        H  0.51104629  0.39780749  0.85006902     0.15200
H840        H  0.69138432  0.35748677  0.86458549     0.15200
H841        H  0.68834396  0.38855687  0.82959429     0.15200
H842        H  0.58512422  0.33245751  0.93994373     0.13500
H843        H  0.63267045  0.33189254  0.93629066     0.13500
H844        H  0.57562133  0.45549394  0.80772063     0.13500
H845        H  0.62303623  0.45503755  0.80462802     0.13500
H846        H  0.58463037  0.39158076  0.87095824     0.26800
H847        H  0.62402476  0.39342582  0.87055815     0.26800
N848        N  0.36668711  0.38238228  0.67766412    -0.36000
N849        N  0.33932022  0.35301832  0.64319526    -0.56600
N850        N  0.36438106  0.37690525  0.60396608    -0.36000
N851        N  0.38921590  0.40875141  0.63837837    -0.56600
C852        C  0.35052444  0.37195958  0.69257238     0.27600
C853        C  0.37766536  0.40054488  0.69010287     0.27600
C854        C  0.34678919  0.36484109  0.59183307     0.27600
C855        C  0.37238613  0.39445769  0.58931408     0.27600
C856        C  0.33269312  0.34186425  0.66363306     0.36200
C857        C  0.33217878  0.33855089  0.62471194     0.36200
C858        C  0.40230675  0.41807961  0.65694156     0.36200
C859        C  0.40020243  0.41574778  0.61791925     0.36200
C860        C  0.35144209  0.38353091  0.71484761    -0.21300
C861        C  0.36852953  0.40151783  0.71329621    -0.21300
C862        C  0.34367249  0.37474473  0.56921051    -0.21300
C863        C  0.35989763  0.39338094  0.56758334    -0.21300
C864        C  0.32095582  0.32033370  0.65809864    -0.22300
C865        C  0.32077147  0.31815586  0.63342125    -0.22300
C866        C  0.42154037  0.43140062  0.64819626    -0.22300
C867        C  0.42016776  0.42996360  0.62344796    -0.22300
C868        C  0.33592595  0.35148366  0.68713587    -0.17700
C869        C  0.39655197  0.41553248  0.68161809    -0.17700
C870        C  0.39161837  0.41051126  0.59438253    -0.17700
C871        C  0.33418081  0.34444195  0.60011177    -0.17700
H872        H  0.34108303  0.37931046  0.73071608     0.15200
H873        H  0.37373339  0.41383729  0.72771116     0.15200
H874        H  0.33106487  0.36908609  0.55524652     0.15200
H875        H  0.36225978  0.40477432  0.55208139     0.15200
H876        H  0.31322217  0.30758495  0.67051722     0.13500
H877        H  0.31281907  0.30343058  0.62308002     0.13500
H878        H  0.43505237  0.44125493  0.65855186     0.13500
H879        H  0.43235857  0.43850432  0.61096560     0.13500
H880        H  0.37102167  0.37661070  0.66045430     0.26800
H881        H  0.37152573  0.37243361  0.62062865     0.26800
N882        N  0.37363502  0.38995172  0.07080058    -0.36000
N883        N  0.40426491  0.36595881  0.10579479    -0.56600
N884        N  0.37964459  0.39135499  0.14495492    -0.36000
N885        N  0.34669502  0.41276495  0.10974461    -0.56600
C886        C  0.38488083  0.37392872  0.05616867     0.27600
C887        C  0.35493007  0.39924743  0.05825328     0.27600
C888        C  0.39196665  0.37450513  0.15732230     0.27600
C889        C  0.36158600  0.39893031  0.15938703     0.27600
C890        C  0.41539245  0.35846868  0.08545986     0.36200
C891        C  0.41833057  0.35910545  0.12444706     0.36200
C892        C  0.33651622  0.42431895  0.09094633     0.36200
C893        C  0.33901651  0.42402033  0.12999606     0.36200
C894        C  0.37324786  0.37319095  0.03396195    -0.21300
C895        C  0.35440054  0.38914816  0.03526938    -0.21300
C896        C  0.38190524  0.37174004  0.17993757    -0.21300
C897        C  0.36275202  0.38712876  0.18123216    -0.21300
C898        C  0.43654346  0.34659103  0.09124994    -0.22300
C899        C  0.43840461  0.34700318  0.11594217    -0.22300
C900        C  0.32208154  0.44289363  0.09931641    -0.22300
C901        C  0.32361570  0.44266514  0.12406512    -0.22300
C902        C  0.40599086  0.36076896  0.06183433    -0.17700
C903        C  0.33912127  0.41755948  0.06641408    -0.17700
C904        C  0.34424721  0.41650114  0.15374751    -0.17700
C905        C  0.41217572  0.36156864  0.14904181    -0.17700
H906        H  0.37794559  0.36242624  0.01831823     0.15200
H907        H  0.34182182  0.39297946  0.02083922     0.15200
H908        H  0.38754270  0.35962728  0.19400589     0.15200
H909        H  0.35084584  0.38914581  0.19648272     0.15200
H910        H  0.44910793  0.33812699  0.07899516     0.13500
H911        H  0.45265011  0.33889318  0.12646053     0.13500
H912        H  0.31130288  0.45510010  0.08872140     0.13500
H913        H  0.31427074  0.45466957  0.13630475     0.13500
H914        H  0.37921472  0.39531028  0.08787782     0.26800
H915        H  0.38383202  0.39791794  0.12805134     0.26800
N916        N  0.37262634  0.19337954  0.87220673    -0.36000
N917        N  0.35024433  0.15495628  0.84377502    -0.56600
N918        N  0.38060154  0.12006359  0.86898141    -0.36000
N919        N  0.40583059  0.15853948  0.89433659    -0.56600
C920        C  0.35974784  0.20645102  0.85621335     0.27600
C921        C  0.38895988  0.20844094  0.88274910     0.27600
C922        C  0.37079553  0.10606751  0.85140701     0.27600
C923        C  0.39961373  0.10789760  0.87799536     0.27600
C924        C  0.33576585  0.17316083  0.83687101     0.36200
C925        C  0.33982537  0.13433860  0.83556801     0.36200
C926        C  0.41207560  0.17851772  0.90714690     0.36200
C927        C  0.41592669  0.13957506  0.90567694     0.36200
C928        C  0.36786209  0.23016438  0.85683485    -0.21300
C929        C  0.38623147  0.23142332  0.87354666    -0.21300
C930        C  0.38366893  0.08477739  0.84927762    -0.21300
C931        C  0.40190174  0.08597278  0.86602125    -0.21300
C932        C  0.31627958  0.16408011  0.82376262    -0.22300
C933        C  0.31885489  0.13945090  0.82294924    -0.22300
C934        C  0.42663175  0.17226003  0.92648512    -0.22300
C935        C  0.42900588  0.14758034  0.92558850    -0.22300
C936        C  0.34037368  0.19790100  0.84153993    -0.17700
C937        C  0.40565821  0.20241207  0.90114355    -0.17700
C938        C  0.41407302  0.11525613  0.89773485    -0.17700
C939        C  0.34955838  0.11107022  0.83837012    -0.17700
H940        H  0.36129828  0.24506088  0.84627539     0.15200
H941        H  0.39645243  0.24749246  0.87833569     0.15200
H942        H  0.38016883  0.06977382  0.83708207     0.15200
H943        H  0.41519230  0.07213571  0.86919340     0.15200
H944        H  0.30174743  0.17412086  0.81560355     0.13500
H945        H  0.30679615  0.12678312  0.81393353     0.13500
H946        H  0.43468051  0.18422578  0.93987273     0.13500
H947        H  0.43924357  0.13680019  0.93809920     0.13500
H948        H  0.36969484  0.17552955  0.87662752     0.26800
H949        H  0.37359212  0.13608506  0.87557873     0.26800
N950        N  0.17168500  0.38419753  0.88054068    -0.36000
N951        N  0.13573098  0.36093487  0.84872889    -0.56600
N952        N  0.09741899  0.38695985  0.87375489    -0.36000
N953        N  0.13376514  0.41321736  0.90279101    -0.56600
C954        C  0.18654047  0.37186454  0.86560721     0.27600
C955        C  0.18549435  0.39957151  0.89397850     0.27600
C956        C  0.08483099  0.37727659  0.85499722     0.27600
C957        C  0.08381631  0.40485146  0.88315553     0.27600
C958        C  0.15546300  0.34873728  0.84134416     0.36200
C959        C  0.11643216  0.35022691  0.83791390     0.36200
C960        C  0.15267179  0.42132364  0.91625572     0.36200
C961        C  0.11358602  0.42264088  0.91262018     0.36200
C962        C  0.21017393  0.37914090  0.87001348    -0.21300
C963        C  0.20952172  0.39653200  0.88781692    -0.21300
C964        C  0.06287956  0.38889167  0.85271302    -0.21300
C965        C  0.06224151  0.40627939  0.87043527    -0.21300
C966        C  0.14866069  0.33040589  0.82545410    -0.22300
C967        C  0.12398584  0.33127374  0.82337350    -0.22300
C968        C  0.14445436  0.43621860  0.93462844    -0.22300
C969        C  0.11973071  0.43698170  0.93238925    -0.22300
C970        C  0.17964813  0.35413345  0.84812834    -0.17700
C971        C  0.17732196  0.41622300  0.91178780    -0.17700
C972        C  0.08984917  0.41969797  0.90320275    -0.17700
C973        C  0.09218847  0.35793602  0.84004303    -0.17700
H974        H  0.22630506  0.37277996  0.86116717     0.15200
H975        H  0.22507558  0.40599691  0.89520917     0.15200
H976        H  0.04883497  0.38538948  0.83946272     0.15200
H977        H  0.04757449  0.41872071  0.87344766     0.15200
H978        H  0.16025499  0.31765367  0.81633558     0.13500
H979        H  0.11292432  0.31936623  0.81227924     0.13500
H980        H  0.15515923  0.44562291  0.94819352     0.13500
H981        H  0.10769290  0.44718696  0.94383413     0.13500
H982        H  0.15326475  0.38187988  0.88181062     0.26800
H983        H  0.11378311  0.38099501  0.88044094     0.26800
C984        C  0.68675241  0.73731285  0.19835496     0.80800
N985        N  0.67594603  0.72701544  0.21764053    -0.77500
C986        C  0.68504965  0.70667653  0.22752514     0.83300
N987        N  0.70514503  0.69671106  0.21783776    -0.77400
C988        C  0.71619130  0.70668966  0.19860926     0.83400
N989        N  0.70681677  0.72698591  0.18893560    -0.79100
N990        N  0.61197354  0.62415808  0.31468868    -0.36000
N991        N  0.58481573  0.59921988  0.35190357    -0.56600
N992        N  0.60837722  0.62938100  0.38831973    -0.36000
N993        N  0.63304005  0.65673246  0.35110220    -0.56600
C994        C  0.59755823  0.60995535  0.30069166     0.27600
C995        C  0.62249808  0.64059162  0.30024181     0.27600
C996        C  0.59078002  0.61920481  0.40157324     0.27600
C997        C  0.61707714  0.64832008  0.40121916     0.27600
C998        C  0.57818276  0.58523713  0.33289145     0.36200
C999        C  0.57575559  0.58866891  0.37170981     0.36200
C1000       C  0.64534526  0.66438925  0.33168883     0.36200
C1001       C  0.64439726  0.66612650  0.37072489     0.36200
C1002       C  0.59941769  0.61712603  0.27690266    -0.21300
C1003       C  0.61503796  0.63644285  0.27663437    -0.21300
C1004       C  0.58839352  0.63173567  0.42318118    -0.21300
C1005       C  0.60503234  0.65011130  0.42297296    -0.21300
C1006       C  0.56446680  0.56585032  0.34063284    -0.22300
C1007       C  0.56298377  0.56799503  0.36524786    -0.22300
C1008       C  0.66436446  0.67917911  0.33900154    -0.22300
C1009       C  0.66385796  0.68014316  0.36377583    -0.22300
C1010       C  0.58301278  0.59044877  0.30852601    -0.17700
C1011       C  0.63936509  0.65867399  0.30744655    -0.17700
C1012       C  0.63668964  0.66305979  0.39471340    -0.17700
C1013       C  0.57761189  0.59821480  0.39536132    -0.17700
H1014       H  0.59044949  0.60930172  0.26126471     0.15200
H1015       H  0.62036281  0.64623206  0.26076469     0.15200
H1016       H  0.57606523  0.62793366  0.43770213     0.15200
H1017       H  0.60803066  0.66321802  0.43730189     0.15200
H1018       H  0.55614339  0.55178394  0.32967551     0.13500
H1019       H  0.55327937  0.55594222  0.37698275     0.13500
H1020       H  0.67735357  0.68817509  0.32768201     0.13500
H1021       H  0.67623464  0.69017464  0.37532314     0.13500
H1022       H  0.61507724  0.62222856  0.33290435     0.26800
H1023       H  0.61526282  0.62285288  0.37223758     0.26800
C1024       C  0.70077467  0.55123178  0.00553028     0.80800
N1025       N  0.72091854  0.56044789  0.01645319    -0.77500
C1026       C  0.72933396  0.55099373  0.03735506     0.83300
N1027       N  0.71741150  0.53210447  0.04720283    -0.77400
C1028       C  0.69734006  0.52256161  0.03657147     0.83400
N1029       N  0.68905179  0.53233741  0.01577372    -0.79100
C1030       C  0.51072771  0.70708148  0.04128850     0.80800
N1031       N  0.51997194  0.72808160  0.05024550    -0.77500
C1032       C  0.53952786  0.73867394  0.04021315     0.83300
N1033       N  0.54994456  0.72797799  0.02081403    -0.77400
C1034       C  0.54105133  0.70694347  0.01140424     0.83400
N1035       N  0.52138919  0.69655212  0.02178509    -0.79100
C1036       C  0.53674577  0.51137220  0.19726365     0.80800
N1037       N  0.54623428  0.52038226  0.21822093    -0.77500
C1038       C  0.53690066  0.54043444  0.22878464     0.83300
N1039       N  0.51809546  0.55158473  0.21800697    -0.77400
C1040       C  0.50841065  0.54302003  0.19711525     0.83400
N1041       N  0.51784262  0.52288177  0.18676582    -0.79100
N1042       N  0.42562279  0.62967510  0.12175534    -0.36000
N1043       N  0.38910082  0.60064459  0.14616683    -0.56600
N1044       N  0.35191489  0.62588888  0.12000579    -0.36000
N1045       N  0.38806743  0.65262020  0.09320141    -0.56600
C1046       C  0.43955943  0.61276205  0.13225496     0.27600
C1047       C  0.43902593  0.64028264  0.10449545     0.27600
C1048       C  0.33870692  0.60820559  0.13007550     0.27600
C1049       C  0.33808178  0.63571082  0.10269637     0.27600
C1050       C  0.40870508  0.59425577  0.15902826     0.36200
C1051       C  0.36968513  0.59269909  0.15838063     0.36200
C1052       C  0.40718268  0.66573271  0.08581366     0.36200
C1053       C  0.36811991  0.66425294  0.08564986     0.36200
C1054       C  0.46223244  0.61295185  0.12184116    -0.21300
C1055       C  0.46191875  0.63033623  0.10440622    -0.21300
C1056       C  0.31617859  0.60683838  0.11906184    -0.21300
C1057       C  0.31576109  0.62425302  0.10182463    -0.21300
C1058       C  0.40174002  0.58196181  0.17948132    -0.22300
C1059       C  0.37693457  0.58100018  0.17907270    -0.22300
C1060       C  0.39936119  0.68554814  0.07300746    -0.22300
C1061       C  0.37455167  0.68465038  0.07297666    -0.22300
C1062       C  0.43274919  0.59770128  0.15152678    -0.17700
C1063       C  0.43155263  0.65929395  0.08939730    -0.17700
C1064       C  0.34425018  0.65603224  0.08908604    -0.17700
C1065       C  0.34567195  0.59449821  0.15010665    -0.17700
H1066       H  0.47747990  0.60173537  0.12633756     0.15200
H1067       H  0.47687923  0.63504441  0.09291987     0.15200
H1068       H  0.30132331  0.59490698  0.12331123     0.15200
H1069       H  0.30053683  0.62825143  0.09028179     0.15200
H1070       H  0.41333004  0.57424576  0.19309165     0.13500
H1071       H  0.36556868  0.57238978  0.19225369     0.13500
H1072       H  0.41037102  0.69914911  0.06449872     0.13500
H1073       H  0.36263159  0.69736542  0.06438043     0.13500
H1074       H  0.40835194  0.63447167  0.12685657     0.26800
H1075       H  0.36862196  0.63217282  0.12580809     0.26800
N1076       N  0.61690081  0.43314409  0.11350678    -0.36000
N1077       N  0.64822650  0.39986550  0.08772182    -0.56600
N1078       N  0.62540891  0.35963260  0.11226777    -0.36000
N1079       N  0.59657717  0.39303872  0.14058141    -0.56600
C1080       C  0.63158197  0.44909382  0.10243052     0.27600
C1081       C  0.60418651  0.44546696  0.13026495     0.27600
C1082       C  0.64430939  0.34854003  0.10189840     0.27600
C1083       C  0.61748288  0.34502378  0.12980200     0.27600
C1084       C  0.65358061  0.42020920  0.07570027     0.36200
C1085       C  0.65755369  0.38140058  0.07482794     0.36200
C1086       C  0.58203221  0.41077831  0.14863405     0.36200
C1087       C  0.58675924  0.37203945  0.14788931     0.36200
C1088       C  0.62776759  0.47197371  0.11191144    -0.21300
C1089       C  0.61047146  0.46972058  0.12937058    -0.21300
C1090       C  0.64838386  0.32657366  0.11286183    -0.21300
C1091       C  0.63136067  0.32432205  0.13047983    -0.21300
C1092       C  0.66671253  0.41467642  0.05522738    -0.22300
C1093       C  0.66909791  0.39005210  0.05458859    -0.22300
C1094       C  0.56304804  0.40099393  0.16149885    -0.22300
C1095       C  0.56598525  0.37640696  0.16091710    -0.22300
C1096       C  0.64777551  0.44381151  0.08347648    -0.17700
C1097       C  0.58642983  0.43571856  0.14574623    -0.17700
C1098       C  0.59713700  0.34914125  0.14418760    -0.17700
C1099       C  0.65711964  0.35702978  0.08192275    -0.17700
H1100       H  0.63641362  0.48864590  0.10669518     0.15200
H1101       H  0.60327159  0.48441332  0.14004711     0.15200
H1102       H  0.66207693  0.31343031  0.10849390     0.15200
H1103       H  0.62932780  0.30909660  0.14232427     0.15200
H1104       H  0.67380833  0.42708299  0.04210790     0.13500
H1105       H  0.67847595  0.37974269  0.04092686     0.13500
H1106       H  0.54864947  0.41055345  0.17047169     0.13500
H1107       H  0.55436137  0.36328769  0.16937804     0.13500
H1108       H  0.61498014  0.41504568  0.10927104     0.26800
H1109       H  0.61737043  0.37542725  0.10659277     0.26800
N1110       N  0.62466063  0.63417106  0.92236552    -0.36000
N1111       N  0.65524149  0.61456731  0.88430053    -0.56600
N1112       N  0.62476678  0.63898139  0.84852823    -0.36000
N1113       N  0.59719601  0.66182028  0.88685535    -0.56600
C1114       C  0.64203450  0.62344753  0.93569362     0.27600
C1115       C  0.61216001  0.64900400  0.93722835     0.27600
C1116       C  0.64251569  0.63047495  0.83430740     0.27600
C1117       C  0.61235970  0.65529513  0.83556025     0.27600
C1118       C  0.66354918  0.60126045  0.90282353     0.36200
C1119       C  0.66372028  0.60419319  0.86391320     0.36200
C1120       C  0.58479668  0.66815655  0.90682790     0.36200
C1121       C  0.58474489  0.67036697  0.86774856     0.36200
C1122       C  0.64041119  0.63145841  0.95939163    -0.21300
C1123       C  0.62161691  0.64749989  0.96036476    -0.21300
C1124       C  0.64120377  0.64124675  0.81192498    -0.21300
C1125       C  0.62224270  0.65694241  0.81272942    -0.21300
C1126       C  0.67777847  0.58265465  0.89413671    -0.22300
C1127       C  0.67797263  0.58458524  0.86951375    -0.22300
C1128       C  0.56449987  0.68113714  0.90037862    -0.22300
C1129       C  0.56443971  0.68248707  0.87566338    -0.22300
C1130       C  0.65857882  0.60571335  0.92747518    -0.17700
C1131       C  0.59194258  0.66328689  0.93087072    -0.17700
C1132       C  0.59196532  0.66833614  0.84333346    -0.17700
C1133       C  0.65900596  0.61219272  0.84027026    -0.17700
H1134       H  0.65159567  0.62625146  0.97449051     0.15200
H1135       H  0.61558494  0.65694398  0.97637527     0.15200
H1136       H  0.65269364  0.63808350  0.79653687     0.15200
H1137       H  0.61643200  0.66826955  0.79808206     0.15200
H1138       H  0.68687729  0.56891938  0.90439001     0.13500
H1139       H  0.68729591  0.57271069  0.85713437     0.13500
H1140       H  0.55115103  0.68891440  0.91224136     0.13500
H1141       H  0.55104518  0.69149889  0.86479239     0.13500
H1142       H  0.62071823  0.63055297  0.90446230     0.26800
H1143       H  0.62063091  0.63297026  0.86556523     0.26800
N1144       N  0.80855109  0.63078462  0.12525098    -0.36000
N1145       N  0.84711009  0.60862384  0.09762778    -0.56600
N1146       N  0.88251882  0.63620387  0.12597438    -0.36000
N1147       N  0.84393260  0.66106664  0.15108692    -0.56600
C1148       C  0.79559379  0.61931428  0.10775529     0.27600
C1149       C  0.79386705  0.64713668  0.13576461     0.27600
C1150       C  0.89645739  0.62749151  0.10804091     0.27600
C1151       C  0.89489138  0.65460935  0.13652733     0.27600
C1152       C  0.82851987  0.59476697  0.08966500     0.36200
C1153       C  0.86747034  0.59785213  0.08991415     0.36200
C1154       C  0.82385851  0.66746392  0.16320485     0.36200
C1155       C  0.86293107  0.66995597  0.16385078     0.36200
C1156       C  0.77227921  0.62822988  0.10741737    -0.21300
C1157       C  0.77117343  0.64573381  0.12508870    -0.21300
C1158       C  0.91800098  0.64032334  0.10738016    -0.21300
C1159       C  0.91698269  0.65747553  0.12531171    -0.21300
C1160       C  0.83709449  0.57517107  0.07664524    -0.22300
C1161       C  0.86182072  0.57714791  0.07678225    -0.22300
C1162       C  0.83009049  0.68080913  0.18360897    -0.22300
C1163       C  0.85486223  0.68227855  0.18409295    -0.22300
C1164       C  0.80391456  0.60046657  0.09258085    -0.17700
C1165       C  0.79996296  0.66261495  0.15537754    -0.17700
C1166       C  0.88733079  0.66827764  0.15666550    -0.17700
C1167       C  0.89092243  0.60748421  0.09304425    -0.17700
H1168       H  0.75754483  0.62270311  0.09566026     0.15200
H1169       H  0.75538537  0.65621552  0.12955087     0.15200
H1170       H  0.93299020  0.63759325  0.09528579     0.15200
H1171       H  0.93097648  0.67056252  0.12961361     0.15200
H1172       H  0.82662209  0.56110852  0.06771816     0.13500
H1173       H  0.87419759  0.56495778  0.06794105     0.13500
H1174       H  0.81804518  0.68876048  0.19670246     0.13500
H1175       H  0.86564907  0.69157371  0.19766255     0.13500
H1176       H  0.82604488  0.62689205  0.13051338     0.26800
H1177       H  0.86618412  0.62908564  0.13159703     0.26800
N1178       N  0.61284489  0.82682776  0.12033195    -0.36000
N1179       N  0.63856254  0.86248864  0.15007655    -0.56600
N1180       N  0.61177413  0.90008607  0.12651342    -0.36000
N1181       N  0.58366691  0.86449977  0.09894584    -0.56600
C1182       C  0.62339485  0.81244920  0.13678722     0.27600
C1183       C  0.59571354  0.81352787  0.10879510     0.27600
C1184       C  0.62307141  0.91286939  0.14415786     0.27600
C1185       C  0.59368136  0.91387081  0.11813730     0.27600
C1186       C  0.65123339  0.84269469  0.15582735     0.36200
C1187       C  0.65182828  0.88163348  0.15766446     0.36200
C1188       C  0.57679384  0.84588286  0.08450220     0.36200
C1189       C  0.57580186  0.88480456  0.08833944     0.36200
C1190       C  0.61297355  0.78965362  0.13552483    -0.21300
C1191       C  0.59558336  0.79030558  0.11780150    -0.21300
C1192       C  0.61206220  0.93509821  0.14698716    -0.21300
C1193       C  0.59348373  0.93571339  0.13060091    -0.21300
C1194       C  0.67251497  0.84923224  0.16750596    -0.22300
C1195       C  0.67293811  0.87399904  0.16858982    -0.22300
C1196       C  0.56397854  0.85432771  0.06484809    -0.22300
C1197       C  0.56335030  0.87905375  0.06728270    -0.22300
C1198       C  0.64313480  0.81883530  0.15188973    -0.17700
C1199       C  0.58105840  0.82135530  0.08950218    -0.17700
C1200       C  0.57904605  0.90833250  0.09793662    -0.17700
C1201       C  0.64415418  0.90574089  0.15641641    -0.17700
H1202       H  0.61762315  0.77403937  0.14605495     0.15200
H1203       H  0.58421090  0.77531772  0.11213154     0.15200
H1204       H  0.61713714  0.94964919  0.15918334     0.15200
H1205       H  0.58162708  0.95085274  0.12781317     0.15200
H1206       H  0.68622288  0.83739413  0.17457983     0.13500
H1207       H  0.68695661  0.88508014  0.17680095     0.13500
H1208       H  0.55588916  0.84378034  0.05034724     0.13500
H1209       H  0.55466832  0.89136360  0.05503208     0.13500
H1210       H  0.61801638  0.84424728  0.11615072     0.26800
H1211       H  0.61734857  0.88379190  0.11922002     0.26800
O1212       O  0.71859473  0.49105675  0.68469361    -0.77900
C1213       C  0.77204039  0.55154322  0.68775829     0.83200
O1214       O  0.78307632  0.47062369  0.73963864    -0.79000
O1215       O  0.77830766  0.55090873  0.76104270    -0.80500
O1216       O  0.69396668  0.54070665  0.75617279    -0.80300
O1217       O  0.68767827  0.50028290  0.70812087    -0.78900
Zn1218     Zn  0.74793825  0.50436295  0.70138600     1.55700
O1219       O  0.72392229  0.56753806  0.75402988    -0.80300
Cd1220     Cd  0.70675473  0.51094978  0.73840258     1.59700
Cd1221     Cd  0.75980380  0.49373879  0.75825737     1.59600
O1222       O  0.70058540  0.48314548  0.76077009    -0.80300
O1223       O  0.74178486  0.51369037  0.73377480    -1.90800
Cd1224     Cd  0.75062146  0.54800944  0.73729357     1.59900
O1225       O  0.73541978  0.47226967  0.77766668    -0.80300
O1226       O  0.76461966  0.56255009  0.70652596    -0.78900
C1227       C  0.78313005  0.46603571  0.71705129     0.83600
C1228       C  0.69622958  0.48981953  0.68954598     0.83300
O1229       O  0.76616260  0.52970373  0.68335171    -0.77900
C1230       C  0.70327878  0.56109170  0.76170151     0.84100
O1231       O  0.77000330  0.47725804  0.70223572    -0.78000
C1232       C  0.71256866  0.47006067  0.77502897     0.84200
C1233       C  0.78649757  0.53833869  0.77814234     0.84600
O1234       O  0.78006105  0.51644551  0.78135806    -0.80400
O1235       O  0.04740192  0.02805078  0.48067535    -0.77900
C1236       C  0.03896029  0.98771254  0.55147894     0.83200
O1237       O  0.00086596  0.96543621  0.46245202    -0.79000
O1238       O  0.96355728  0.97961291  0.53961528    -0.80500
O1239       O  0.97582735  0.06224127  0.52447954    -0.80300
O1240       O  0.02498652  0.06082003  0.48429774    -0.78900
Zn1241     Zn  0.03109179  0.00349643  0.50100477     1.55700
O1242       O  0.97273870  0.03445242  0.55292846    -0.80300
Cd1243     Cd  0.99427529  0.04454670  0.49759740     1.59700
Cd1244     Cd  0.97723368  0.98874470  0.48139523     1.59600
O1245       O  0.97196141  0.04745977  0.46921103    -0.80300
O1246       O  0.99760679  0.00981204  0.50388795    -1.90800
Cd1247     Cd  0.98922638  0.00515630  0.53783335     1.59900
O1248       O  0.95800899  0.01135928  0.45725831    -0.80300
O1249       O  0.01704618  0.99092887  0.55716451    -0.78900
C1250       C  0.02323286  0.96162974  0.46683818     0.83600
C1251       C  0.04280889  0.04971179  0.47512347     0.83300
O1252       O  0.04755456  0.99566651  0.53188803    -0.77900
C1253       C  0.96738850  0.05492740  0.54440699     0.84100
O1254       O  0.03505774  0.97410619  0.48211533    -0.78000
C1255       C  0.95914833  0.03435692  0.45527053     0.84200
C1256       C  0.95110020  0.96663263  0.52528592     0.84600
O1257       O  0.95337891  0.96751337  0.50235165    -0.80400
C1258       C  0.53328571  0.05039547  0.73906741     0.80800
N1259       N  0.54330385  0.03051444  0.72866138    -0.77500
C1260       C  0.53339789  0.02022116  0.70848370     0.83300
N1261       N  0.51329615  0.03017557  0.69872155    -0.77400
C1262       C  0.50301552  0.05002365  0.70876728     0.83400
N1263       N  0.51321944  0.06004325  0.72887405    -0.79100
C1264       C  0.71978863  0.05591621  0.54716118     0.80800
N1265       N  0.70947202  0.06523941  0.52704124    -0.77500
C1266       C  0.68940386  0.05482340  0.51716737     0.83300
N1267       N  0.67967393  0.03514229  0.52765715    -0.77400
C1268       C  0.68966822  0.02564061  0.54773060     0.83400
N1269       N  0.70972661  0.03617147  0.55742476    -0.79100
C1270       C  0.52781507  0.23981821  0.54445179     0.80800
N1271       N  0.53688817  0.23071431  0.52352096    -0.77500
C1272       C  0.52758798  0.21008509  0.51349445     0.83300
N1273       N  0.50898526  0.19876236  0.52464733    -0.77400
C1274       C  0.49978417  0.20760709  0.54554641     0.83400
N1275       N  0.50947701  0.22800276  0.55542578    -0.79100
N1276       N  0.60610024  0.12864307  0.43004552    -0.36000
N1277       N  0.57721009  0.15022895  0.39155323    -0.56600
N1278       N  0.60456546  0.12246589  0.35661383    -0.36000
N1279       N  0.63086395  0.09817186  0.39481577    -0.56600
C1280       C  0.58954166  0.14067813  0.44328228     0.27600
C1281       C  0.61776586  0.11335668  0.44491164     0.27600
C1282       C  0.58742898  0.13175407  0.34215495     0.27600
C1283       C  0.61559750  0.10491168  0.34391840     0.27600
C1284       C  0.56958237  0.16393614  0.41025462     0.36200
C1285       C  0.56931517  0.16090642  0.37120804     0.36200
C1286       C  0.64386083  0.09256992  0.41458078     0.36200
C1287       C  0.64352207  0.09012345  0.37567883     0.36200
C1288       C  0.59098343  0.13316992  0.46700669    -0.21300
C1289       C  0.60869273  0.11593104  0.46801222    -0.21300
C1290       C  0.58757915  0.11992602  0.31998098    -0.21300
C1291       C  0.60536634  0.10296593  0.32110310    -0.21300
C1292       C  0.55619126  0.18312312  0.40174481    -0.22300
C1293       C  0.55612253  0.18125650  0.37699111    -0.22300
C1294       C  0.66460869  0.08035593  0.40797316    -0.22300
C1295       C  0.66441108  0.07886304  0.38327426    -0.22300
C1296       C  0.57386494  0.15898726  0.43490186    -0.17700
C1297       C  0.63709894  0.09792067  0.43854160    -0.17700
C1298       C  0.63612172  0.09222786  0.35147101    -0.17700
C1299       C  0.57324459  0.15205339  0.34755320    -0.17700
H1300       H  0.58044366  0.13951086  0.48211816     0.15200
H1301       H  0.61433823  0.10648337  0.48401451     0.15200
H1302       H  0.57645833  0.12349227  0.30435213     0.15200
H1303       H  0.61055690  0.09099360  0.30652896     0.15200
H1304       H  0.54744588  0.19705745  0.41226498     0.13500
H1305       H  0.54725395  0.19337337  0.36467971     0.13500
H1306       H  0.67857643  0.07347577  0.41969321     0.13500
H1307       H  0.67806240  0.07048035  0.37218836     0.13500
H1308       H  0.61005596  0.13159821  0.41218722     0.26800
H1309       H  0.60988817  0.12911808  0.37329543     0.26800
N1310       N  0.41756489  0.12730963  0.62856398    -0.36000
N1311       N  0.38092166  0.15094202  0.59954750    -0.56600
N1312       N  0.34367157  0.12797547  0.62814183    -0.36000
N1313       N  0.38016299  0.10198444  0.65496598    -0.56600
C1314       C  0.43115941  0.13684598  0.61085788     0.27600
C1315       C  0.43070197  0.10976235  0.63903861     0.27600
C1316       C  0.33032440  0.13657045  0.60979465     0.27600
C1317       C  0.32982265  0.11165210  0.63947386     0.27600
C1318       C  0.40044466  0.16352578  0.59233771     0.36200
C1319       C  0.36141487  0.16285057  0.59132214     0.36200
C1320       C  0.39960321  0.09406789  0.66724584     0.36200
C1321       C  0.36056902  0.09546482  0.66770832     0.36200
C1322       C  0.45328845  0.12540558  0.61016485    -0.21300
C1323       C  0.45302589  0.10834280  0.62793448    -0.21300
C1324       C  0.30766546  0.12578900  0.60963515    -0.21300
C1325       C  0.30732607  0.11008492  0.62842472    -0.21300
C1326       C  0.39331305  0.18340499  0.57922225    -0.22300
C1327       C  0.36852340  0.18289784  0.57848181    -0.22300
C1328       C  0.39229554  0.08206853  0.68775217    -0.22300
C1329       C  0.36752578  0.08301047  0.68807021    -0.22300
C1330       C  0.42456582  0.15635780  0.59606742    -0.17700
C1331       C  0.42368110  0.09605543  0.65924888    -0.17700
C1332       C  0.33648960  0.09882090  0.66010937    -0.17700
C1333       C  0.33735865  0.15506479  0.59420539    -0.17700
H1334       H  0.46814008  0.12904743  0.59815986     0.15200
H1335       H  0.46777450  0.09644389  0.63225671     0.15200
H1336       H  0.29276264  0.12908355  0.59744394     0.15200
H1337       H  0.29213920  0.09889568  0.63342049     0.15200
H1338       H  0.40476487  0.19670171  0.57081089     0.13500
H1339       H  0.35705411  0.19572166  0.56945547     0.13500
H1340       H  0.40356891  0.07319687  0.70088913     0.13500
H1341       H  0.35594996  0.07501319  0.70145816     0.13500
H1342       H  0.40088095  0.13351565  0.63412445     0.26800
H1343       H  0.36065097  0.13394208  0.63352338     0.26800
C1344       C  0.68975237  0.21337390  0.72264819     0.80800
N1345       N  0.68003546  0.23364755  0.71328917    -0.77500
C1346       C  0.69067811  0.24518110  0.69465050     0.83300
N1347       N  0.71130418  0.23610056  0.68519611    -0.77400
C1348       C  0.72134140  0.21579673  0.69425237     0.83400
N1349       N  0.71041793  0.20456420  0.71296789    -0.79100
N1350       N  0.60754886  0.32949659  0.62185393    -0.36000
N1351       N  0.63686371  0.36822347  0.64389176    -0.56600
N1352       N  0.60883223  0.40319801  0.61778662    -0.36000
N1353       N  0.58224313  0.36430777  0.59306402    -0.56600
C1354       C  0.62605396  0.31687237  0.63128627     0.27600
C1355       C  0.59613867  0.31487823  0.60563525     0.27600
C1356       C  0.62690416  0.41718545  0.62664258     0.27600
C1357       C  0.59932791  0.41494962  0.59886296     0.27600
C1358       C  0.64508495  0.34938020  0.65665808     0.36200
C1359       C  0.64450175  0.38843267  0.65556603     0.36200
C1360       C  0.56810662  0.34483768  0.58849014     0.36200
C1361       C  0.56983031  0.38363136  0.58540798     0.36200
C1362       C  0.62626532  0.29389730  0.62108251    -0.21300
C1363       C  0.60739200  0.29264278  0.60492365    -0.21300
C1364       C  0.62873601  0.43814503  0.61338989    -0.21300
C1365       C  0.61144358  0.43663121  0.59569433    -0.21300
C1366       C  0.65828629  0.35763798  0.67644352    -0.22300
C1367       C  0.65788108  0.38244516  0.67576457    -0.22300
C1368       C  0.54662300  0.35179656  0.57782483    -0.22300
C1369       C  0.54774634  0.37644199  0.57580612    -0.22300
C1370       C  0.64187077  0.32490236  0.64990377    -0.17700
C1371       C  0.57529946  0.32080201  0.59212727    -0.17700
C1372       C  0.57900202  0.40741143  0.58538443    -0.17700
C1373       C  0.64111933  0.41204768  0.64698882    -0.17700
H1374       H  0.63868017  0.27944905  0.62496583     0.15200
H1375       H  0.60253129  0.27710442  0.59390602     0.15200
H1376       H  0.64123822  0.45301028  0.61613388     0.15200
H1377       H  0.60801231  0.45012836  0.58220242     0.15200
H1378       H  0.66741948  0.34691752  0.68982601     0.13500
H1379       H  0.66672883  0.39465606  0.68841403     0.13500
H1380       H  0.53184393  0.34030148  0.57186644     0.13500
H1381       H  0.53399211  0.38776096  0.56800244     0.13500
H1382       H  0.60217602  0.34661028  0.62722828     0.26800
H1383       H  0.60239057  0.38730618  0.62514728     0.26800
N1384       N  0.61167805  0.93752504  0.62484884    -0.36000
N1385       N  0.63803738  0.90185137  0.59620820    -0.56600
N1386       N  0.61376590  0.86383657  0.62229094    -0.36000
N1387       N  0.58541795  0.89937722  0.64878519    -0.56600
C1388       C  0.62261454  0.95219044  0.60893140     0.27600
C1389       C  0.59545258  0.95087716  0.63722485     0.27600
C1390       C  0.62364826  0.85142940  0.60383013     0.27600
C1391       C  0.59554802  0.85007737  0.63062653     0.27600
C1392       C  0.64943995  0.92190044  0.58866364     0.36200
C1393       C  0.65076890  0.88290571  0.58777880     0.36200
C1394       C  0.57792648  0.91819443  0.66242994     0.36200
C1395       C  0.57832063  0.87913409  0.66008097     0.36200
C1396       C  0.61336845  0.97529096  0.61142389    -0.21300
C1397       C  0.59628944  0.97445721  0.62921792    -0.21300
C1398       C  0.61173295  0.82956007  0.60053244    -0.21300
C1399       C  0.59384989  0.82879957  0.61733766    -0.21300
C1400       C  0.66927694  0.91560046  0.57484576    -0.22300
C1401       C  0.67018410  0.89083469  0.57441720    -0.22300
C1402       C  0.56568394  0.90985318  0.68238786    -0.22300
C1403       C  0.56605191  0.88509085  0.68097043    -0.22300
C1404       C  0.64165749  0.94575923  0.59319586    -0.17700
C1405       C  0.58084167  0.94275301  0.65641351    -0.17700
C1406       C  0.58128223  0.85547940  0.65079030    -0.17700
C1407       C  0.64396391  0.85862323  0.59068632    -0.17700
H1408       H  0.61862031  0.99128988  0.60176045     0.15200
H1409       H  0.58597103  0.98965823  0.63573940     0.15200
H1410       H  0.61548059  0.81554822  0.58738211     0.15200
H1411       H  0.58115930  0.81410972  0.61963578     0.15200
H1412       H  0.68172406  0.92755552  0.56586663     0.13500
H1413       H  0.68330703  0.87993143  0.56499863     0.13500
H1414       H  0.55723277  0.92047225  0.69642313     0.13500
H1415       H  0.55796342  0.87289840  0.69371345     0.13500
H1416       H  0.61598373  0.91973658  0.62793597     0.26800
H1417       H  0.62014135  0.87991915  0.62979106     0.26800
N1418       N  0.80934781  0.13738323  0.61942218    -0.36000
N1419       N  0.84637998  0.16790398  0.64156311    -0.56600
N1420       N  0.88257558  0.13789729  0.61851494    -0.36000
N1421       N  0.84567032  0.10948880  0.59411968    -0.56600
C1422       C  0.79596928  0.15559526  0.62852092     0.27600
C1423       C  0.79562012  0.12574784  0.60267895     0.27600
C1424       C  0.89587090  0.15704706  0.62602700     0.27600
C1425       C  0.89559286  0.12630416  0.60156507     0.27600
C1426       C  0.82721862  0.17526490  0.65450746     0.36200
C1427       C  0.86623629  0.17585050  0.65351099     0.36200
C1428       C  0.82602407  0.09637290  0.58778743     0.36200
C1429       C  0.86503860  0.09613472  0.58819072     0.36200
C1430       C  0.77342647  0.15548043  0.61753854    -0.21300
C1431       C  0.77322674  0.13668916  0.60117350    -0.21300
C1432       C  0.91754487  0.15766961  0.61372135    -0.21300
C1433       C  0.91737907  0.13822074  0.59826006    -0.21300
C1434       C  0.83489031  0.18837837  0.67458421    -0.22300
C1435       C  0.85972326  0.18874918  0.67394572    -0.22300
C1436       C  0.83290628  0.07461467  0.57745684    -0.22300
C1437       C  0.85773884  0.07444554  0.57776161    -0.22300
C1438       C  0.80296627  0.17123070  0.64763742    -0.17700
C1439       C  0.80209746  0.10457171  0.58989911    -0.17700
C1440       C  0.88905750  0.10436778  0.59022837    -0.17700
C1441       C  0.89001231  0.17245231  0.64537884    -0.17700
H1442       H  0.75856710  0.16753886  0.62111774     0.15200
H1443       H  0.75815470  0.13146517  0.58971434     0.15200
H1444       H  0.93218863  0.17051187  0.61597954     0.15200
H1445       H  0.93185211  0.13323189  0.58624423     0.15200
H1446       H  0.82376734  0.19685288  0.68816775     0.13500
H1447       H  0.87159747  0.19758099  0.68690509     0.13500
H1448       H  0.82127323  0.06052187  0.57019359     0.13500
H1449       H  0.86909992  0.06026586  0.57069004     0.13500
H1450       H  0.82622374  0.13219148  0.62554747     0.26800
H1451       H  0.86648826  0.13197442  0.62594623     0.26800
N1452       N  0.61443111  0.13552478  0.81592471    -0.36000
N1453       N  0.64700522  0.16248844  0.84765269    -0.56600
N1454       N  0.62552776  0.13866840  0.88923912    -0.36000
N1455       N  0.59547397  0.10910798  0.85741224    -0.56600
C1456       C  0.62950066  0.14544788  0.79959024     0.27600
C1457       C  0.60231565  0.11729844  0.80469023     0.27600
C1458       C  0.64438736  0.15018813  0.89984564     0.27600
C1459       C  0.61746347  0.12211262  0.90497983     0.27600
C1460       C  0.65151802  0.17412274  0.82689952     0.36200
C1461       C  0.65704300  0.17597853  0.86553809     0.36200
C1462       C  0.58051834  0.10023072  0.84007835     0.36200
C1463       C  0.58638176  0.10209532  0.87879672     0.36200
C1464       C  0.62664397  0.13362574  0.77761892    -0.21300
C1465       C  0.60952693  0.11590480  0.78081343    -0.21300
C1466       C  0.64825466  0.14097003  0.92266674    -0.21300
C1467       C  0.63119486  0.12333329  0.92594709    -0.21300
C1468       C  0.66476198  0.19495850  0.83157998    -0.22300
C1469       C  0.66820796  0.19617163  0.85608400    -0.22300
C1470       C  0.56196695  0.08719399  0.85049023    -0.22300
C1471       C  0.56567400  0.08839172  0.87502721    -0.22300
C1472       C  0.64513762  0.16542332  0.80367807    -0.17700
C1473       C  0.58421303  0.10248267  0.81497524    -0.17700
C1474       C  0.59727195  0.10681367  0.90154423    -0.17700
C1475       C  0.65742886  0.16967550  0.89013182    -0.17700
H1476       H  0.63592070  0.13737151  0.76097510     0.15200
H1477       H  0.60312212  0.10341096  0.76703871     0.15200
H1478       H  0.66183596  0.14651163  0.93573614     0.15200
H1479       H  0.62909591  0.11272413  0.94203642     0.15200
H1480       H  0.67137278  0.20785608  0.81868253     0.13500
H1481       H  0.67798403  0.21021484  0.86579958     0.13500
H1482       H  0.54742335  0.07762139  0.84134968     0.13500
H1483       H  0.55456420  0.07992950  0.88851701     0.13500
H1484       H  0.61163715  0.14157854  0.83340111     0.26800
H1485       H  0.61774854  0.14291034  0.87283365     0.26800
C1486       C  0.01460308  0.71616331  0.53650747     0.80800
N1487       N  0.02456249  0.73570241  0.54782664    -0.77500
C1488       C  0.04406444  0.74715696  0.53845973     0.83300
N1489       N  0.05388680  0.73853540  0.51767834    -0.77400
C1490       C  0.04424190  0.71887459  0.50615861     0.83400
N1491       N  0.02460908  0.70785565  0.51576785    -0.79100
N1492       N  0.12513902  0.64201433  0.42038035    -0.36000
N1493       N  0.09390231  0.66235960  0.38310163    -0.56600
N1494       N  0.11748480  0.63243389  0.34728245    -0.36000
N1495       N  0.14626294  0.60960589  0.38455802    -0.56600
C1496       C  0.10941235  0.65457620  0.43419350     0.27600
C1497       C  0.13699328  0.62650796  0.43494269     0.27600
C1498       C  0.09853741  0.64052586  0.33441698     0.27600
C1499       C  0.12613532  0.61314798  0.33524879     0.27600
C1500       C  0.08735922  0.67670919  0.40174111     0.36200
C1501       C  0.08396019  0.67181044  0.36303848     0.36200
C1502       C  0.16038543  0.60411352  0.40359590     0.36200
C1503       C  0.15694111  0.60001683  0.36488122     0.36200
C1504       C  0.11175209  0.64733261  0.45793292    -0.21300
C1505       C  0.12906495  0.62966697  0.45839027    -0.21300
C1506       C  0.09507476  0.62624166  0.31400541    -0.21300
C1507       C  0.11252345  0.60887967  0.31454437    -0.21300
C1508       C  0.07276844  0.69514161  0.39351563    -0.22300
C1509       C  0.07071017  0.69209678  0.36896559    -0.22300
C1510       C  0.17994829  0.59059667  0.39601152    -0.22300
C1511       C  0.17782818  0.58811729  0.37141482    -0.22300
C1512       C  0.09319014  0.67263309  0.42622802    -0.17700
C1513       C  0.15513226  0.60991444  0.42785969    -0.17700
C1514       C  0.14715940  0.60056849  0.34137750    -0.17700
C1515       C  0.08539585  0.66144498  0.33971299    -0.17700
H1516       H  0.10187555  0.65394451  0.47338169     0.15200
H1517       H  0.13505447  0.62016561  0.47423356     0.15200
H1518       H  0.08157862  0.62828002  0.30001352     0.15200
H1519       H  0.11511605  0.59494881  0.30100871     0.15200
H1520       H  0.06433133  0.70920629  0.40412067     0.13500
H1521       H  0.06027057  0.70323845  0.35694103     0.13500
H1522       H  0.19421415  0.58324343  0.40706065     0.13500
H1523       H  0.19001051  0.57835169  0.35974369     0.13500
H1524       H  0.12815987  0.64446728  0.40219946     0.26800
H1525       H  0.12528341  0.64072497  0.36229682     0.26800
C1526       C  0.23556474  0.71380051  0.69831969     0.80800
N1527       N  0.22498337  0.70525577  0.71855422    -0.77500
C1528       C  0.20523441  0.71617778  0.72783767     0.83300
N1529       N  0.19618593  0.73583892  0.71688005    -0.77400
C1530       C  0.20651581  0.74476858  0.69678472     0.83400
N1531       N  0.22614483  0.73354093  0.68745692    -0.79100
C1532       C  0.20437963  0.52505752  0.53117163     0.80800
N1533       N  0.19459311  0.53633356  0.51184754    -0.77500
C1534       C  0.20414215  0.55738541  0.50368284     0.83300
N1535       N  0.22374534  0.56713502  0.51524000    -0.77400
C1536       C  0.23386497  0.55594931  0.53449862     0.83400
N1537       N  0.22394906  0.53504985  0.54226635    -0.79100
N1538       N  0.31934161  0.63083061  0.62125250    -0.36000
N1539       N  0.35626077  0.65032452  0.65430548    -0.56600
N1540       N  0.39279581  0.62324944  0.62811299    -0.36000
N1541       N  0.35544640  0.60072765  0.59803458    -0.56600
C1542       C  0.30543559  0.64208179  0.63776523     0.27600
C1543       C  0.30492129  0.61533868  0.60871652     0.27600
C1544       C  0.40576924  0.63115378  0.64735693     0.27600
C1545       C  0.40540918  0.60522286  0.61769394     0.27600
C1546       C  0.33766233  0.66497028  0.65995543     0.36200
C1547       C  0.37640623  0.66083163  0.66365182     0.36200
C1548       C  0.33631681  0.59527796  0.58369955     0.36200
C1549       C  0.37514131  0.59198414  0.58678929     0.36200
C1550       C  0.28181823  0.63388016  0.63550841    -0.21300
C1551       C  0.28149577  0.61700272  0.61718177    -0.21300
C1552       C  0.42685099  0.61795781  0.64923343    -0.21300
C1553       C  0.42666106  0.60162030  0.63043211    -0.21300
C1554       C  0.34592584  0.68463891  0.67330686    -0.22300
C1555       C  0.37047013  0.68209218  0.67555229    -0.22300
C1556       C  0.34380423  0.58263622  0.56345329    -0.22300
C1557       C  0.36841652  0.58067769  0.56532184    -0.22300
C1558       C  0.31319058  0.66041164  0.65400936    -0.17700
C1559       C  0.31204171  0.60046746  0.58919072    -0.17700
C1560       C  0.39892412  0.59284654  0.59625568    -0.17700
C1561       C  0.39997938  0.65114067  0.66213143    -0.17700
H1562       H  0.26637705  0.63951758  0.64593853     0.15200
H1563       H  0.26575383  0.60714556  0.61077263     0.15200
H1564       H  0.44106517  0.62012654  0.66256521     0.15200
H1565       H  0.44067169  0.58869112  0.62647058     0.15200
H1566       H  0.33539253  0.69939060  0.68050479     0.13500
H1567       H  0.38253289  0.69459658  0.68477044     0.13500
H1568       H  0.33269090  0.57553059  0.54887953     0.13500
H1569       H  0.37997283  0.57173005  0.55242773     0.13500
H1570       H  0.33734629  0.63452845  0.61791355     0.26800
H1571       H  0.37712995  0.63088300  0.62144503     0.26800
C1572       C  0.05068292  0.56023863  0.72107709     0.80800
N1573       N  0.03002768  0.56907869  0.71113385    -0.77500
C1574       C  0.01973556  0.55817309  0.69144611     0.83300
N1575       N  0.03046729  0.53839549  0.68178767    -0.77400
C1576       C  0.05105103  0.52939150  0.69138433     0.83400
N1577       N  0.06110661  0.54043182  0.71101215    -0.79100
N1578       N  0.12526697  0.44101885  0.60838424    -0.36000
N1579       N  0.14214253  0.40255891  0.57603381    -0.56600
N1580       N  0.11450683  0.36821662  0.60417343    -0.36000
N1581       N  0.09496662  0.40652688  0.63386288    -0.56600
C1582       C  0.13575990  0.45403174  0.59078867     0.27600
C1583       C  0.11103176  0.45616431  0.62119461     0.27600
C1584       C  0.12179733  0.35421729  0.58562888     0.27600
C1585       C  0.09631502  0.35638061  0.61505240     0.27600
C1586       C  0.15685815  0.42067011  0.56909021     0.36200
C1587       C  0.15222178  0.38181780  0.56808775     0.36200
C1588       C  0.09180337  0.42605224  0.64819719     0.36200
C1589       C  0.08644863  0.38737470  0.64606548     0.36200
C1590       C  0.12838046  0.47783232  0.59268152    -0.21300
C1591       C  0.11277627  0.47916581  0.61179585    -0.21300
C1592       C  0.10800317  0.33329803  0.58450547    -0.21300
C1593       C  0.09191699  0.33462622  0.60312451    -0.21300
C1594       C  0.17608821  0.41145431  0.55616065    -0.22300
C1595       C  0.17323029  0.38677943  0.55566584    -0.22300
C1596       C  0.08086341  0.41933468  0.66950531    -0.22300
C1597       C  0.07748280  0.39478320  0.66815580    -0.22300
C1598       C  0.15287066  0.44541473  0.57391161    -0.17700
C1599       C  0.09710526  0.45003235  0.64160401    -0.17700
C1600       C  0.08544274  0.36355266  0.63684831    -0.17700
C1601       C  0.14227213  0.35857537  0.57145597    -0.17700
H1602       H  0.13373197  0.49275152  0.58147714     0.15200
H1603       H  0.10379315  0.49530513  0.61806918     0.15200
H1604       H  0.10984935  0.31830920  0.57199754     0.15200
H1605       H  0.07901464  0.32073937  0.60769817     0.15200
H1606       H  0.19078827  0.42144260  0.54819827     0.13500
H1607       H  0.18521343  0.37398501  0.54713952     0.13500
H1608       H  0.07571237  0.43094118  0.68438895     0.13500
H1609       H  0.06912197  0.38372507  0.68172881     0.13500
H1610       H  0.12862516  0.42311588  0.61218987     0.26800
H1611       H  0.12306077  0.38377696  0.61037817     0.26800
N1612       N  0.93048328  0.63120802  0.61103064    -0.36000
N1613       N  0.89302067  0.65584440  0.58315814    -0.56600
N1614       N  0.85717084  0.62844660  0.60879514    -0.36000
N1615       N  0.89436110  0.60177053  0.63444884    -0.56600
C1616       C  0.94393938  0.64255880  0.59429581     0.27600
C1617       C  0.94459904  0.61432245  0.62143238     0.27600
C1618       C  0.84376783  0.63806213  0.59096900     0.27600
C1619       C  0.84455268  0.60952034  0.61726456     0.27600
C1620       C  0.91229366  0.66938371  0.57702218     0.36200
C1621       C  0.87315440  0.66824709  0.57654600     0.36200
C1622       C  0.91374732  0.59511090  0.64757694     0.36200
C1623       C  0.87468904  0.59362285  0.64610790     0.36200
C1624       C  0.96690185  0.63277520  0.59405868    -0.21300
C1625       C  0.96736280  0.61509722  0.61121669    -0.21300
C1626       C  0.82248424  0.62500678  0.58805837    -0.21300
C1627       C  0.82302815  0.60693996  0.60463012    -0.21300
C1628       C  0.90463172  0.69034382  0.56600329    -0.22300
C1629       C  0.87977888  0.68962390  0.56573836    -0.22300
C1630       C  0.90635442  0.58215997  0.66746439    -0.22300
C1631       C  0.88153286  0.58131343  0.66657866    -0.22300
C1632       C  0.93665354  0.66257063  0.58036479    -0.17700
C1633       C  0.93797419  0.59937002  0.64093010    -0.17700
C1634       C  0.85081012  0.59599050  0.63758092    -0.17700
C1635       C  0.84928327  0.65957217  0.57891439    -0.17700
H1636       H  0.98193357  0.63808070  0.58292258     0.15200
H1637       H  0.98287882  0.60430284  0.61577915     0.15200
H1638       H  0.80777927  0.62829147  0.57566679     0.15200
H1639       H  0.80890126  0.59372818  0.60742669     0.15200
H1640       H  0.91577218  0.70463366  0.55886373     0.13500
H1641       H  0.86797241  0.70310352  0.55822897     0.13500
H1642       H  0.91763308  0.57397565  0.68104567     0.13500
H1643       H  0.86989501  0.57236130  0.67929211     0.13500
H1644       H  0.91318060  0.63588813  0.61616224     0.26800
H1645       H  0.87292563  0.63565638  0.61621266     0.26800
N1646       N  0.12373608  0.83048173  0.62239920    -0.36000
N1647       N  0.15389733  0.86714487  0.64657616    -0.56600
N1648       N  0.12368310  0.90452080  0.62629659    -0.36000
N1649       N  0.09577391  0.86808656  0.59941601    -0.56600
C1650       C  0.14131831  0.81645810  0.63160807     0.27600
C1651       C  0.11130628  0.81703675  0.60593967     0.27600
C1652       C  0.14176005  0.91813524  0.63574163     0.27600
C1653       C  0.11115774  0.91872186  0.61122884     0.27600
C1654       C  0.16297893  0.84737172  0.65716130     0.36200
C1655       C  0.16332531  0.88636641  0.65857052     0.36200
C1656       C  0.08344181  0.84877763  0.59063612     0.36200
C1657       C  0.08298671  0.88778783  0.59342545     0.36200
C1658       C  0.13967859  0.79359902  0.62125987    -0.21300
C1659       C  0.12090211  0.79401733  0.60499207    -0.21300
C1660       C  0.14054832  0.94132989  0.62686210    -0.21300
C1661       C  0.12114978  0.94177686  0.61154667    -0.21300
C1662       C  0.17871416  0.85409367  0.67563490    -0.22300
C1663       C  0.17883610  0.87879437  0.67660216    -0.22300
C1664       C  0.06281007  0.85626871  0.57870985    -0.22300
C1665       C  0.06251804  0.88099618  0.58048082    -0.22300
C1666       C  0.15817650  0.82333039  0.64978299    -0.17700
C1667       C  0.09110186  0.82457320  0.59220828    -0.17700
C1668       C  0.09043575  0.91186502  0.59784875    -0.17700
C1669       C  0.15874567  0.91068466  0.65299513    -0.17700
H1670       H  0.15080415  0.77811425  0.62496220     0.15200
H1671       H  0.11494260  0.77897071  0.59381865     0.15200
H1672       H  0.15233685  0.95645786  0.63108209     0.15200
H1673       H  0.11514629  0.95747537  0.60188515     0.15200
H1674       H  0.18914588  0.84245853  0.68717248     0.13500
H1675       H  0.18923447  0.88986160  0.68911694     0.13500
H1676       H  0.04948338  0.84510974  0.56949578     0.13500
H1677       H  0.04899779  0.89264768  0.57276671     0.13500
H1678       H  0.11982988  0.84786396  0.62789933     0.26800
H1679       H  0.11933767  0.88700289  0.63082039     0.26800
N1680       N  0.12457352  0.63998289  0.81211378    -0.36000
N1681       N  0.14729925  0.66932671  0.84991576    -0.56600
N1682       N  0.11831102  0.64408723  0.88554126    -0.36000
N1683       N  0.09867464  0.61192822  0.84804149    -0.56600
C1684       C  0.14203950  0.65115022  0.79940490     0.27600
C1685       C  0.11587552  0.62163892  0.79824502     0.27600
C1686       C  0.13336342  0.65683229  0.90017524     0.27600
C1687       C  0.10756976  0.62718681  0.89920568     0.27600
C1688       C  0.15657596  0.68072066  0.83070540     0.36200
C1689       C  0.15331403  0.68275010  0.86951126     0.36200
C1690       C  0.08856141  0.60207999  0.82794429     0.36200
C1691       C  0.08567240  0.60394231  0.86690670     0.36200
C1692       C  0.14435874  0.63977519  0.77714027    -0.21300
C1693       C  0.12780980  0.62125249  0.77638110    -0.21300
C1694       C  0.13175345  0.64819531  0.92349095    -0.21300
C1695       C  0.11554091  0.62952631  0.92286285    -0.21300
C1696       C  0.16873811  0.70146904  0.83815794    -0.22300
C1697       C  0.16678591  0.70267083  0.86280717    -0.22300
C1698       C  0.06938180  0.58729304  0.83413431    -0.22300
C1699       C  0.06761067  0.58840916  0.85882600    -0.22300
C1700       C  0.15526723  0.67197447  0.80671503    -0.17700
C1701       C  0.09662857  0.60593607  0.80412901    -0.17700
C1702       C  0.09008909  0.61016803  0.89135520    -0.17700
C1703       C  0.14822884  0.67638877  0.89347616    -0.17700
H1704       H  0.15663873  0.64439586  0.76281779     0.15200
H1705       H  0.12489282  0.60888381  0.76139707     0.15200
H1706       H  0.14126898  0.65460769  0.93943077     0.15200
H1707       H  0.11029421  0.61884025  0.93816837     0.15200
H1708       H  0.17830625  0.71422081  0.82706335     0.13500
H1709       H  0.17454577  0.71648851  0.87447601     0.13500
H1710       H  0.05783500  0.57681999  0.82212997     0.13500
H1711       H  0.05441575  0.57901883  0.86957911     0.13500
H1712       H  0.11789485  0.64545059  0.82863748     0.26800
H1713       H  0.11478261  0.64737572  0.86756954     0.26800
C1714       C  0.80144091  0.27808790  0.29541414     0.80800
N1715       N  0.81046776  0.28778758  0.27480661    -0.77500
C1716       C  0.80030094  0.30777935  0.26492869     0.83300
N1717       N  0.78087131  0.31789398  0.27591261    -0.77400
C1718       C  0.77149193  0.30856469  0.29638235     0.83400
N1719       N  0.78200365  0.28870956  0.30597226    -0.79100
N1720       N  0.67785935  0.38323690  0.37556853    -0.36000
N1721       N  0.64447873  0.35467930  0.34631606    -0.56600
N1722       N  0.60399003  0.37933140  0.36984985    -0.36000
N1723       N  0.63720278  0.40558660  0.40133080    -0.56600
C1724       C  0.69356922  0.36783702  0.36489030     0.27600
C1725       C  0.68967740  0.39458288  0.39392283     0.27600
C1726       C  0.59254907  0.36082839  0.35845731     0.27600
C1727       C  0.58884326  0.38770972  0.38697626     0.27600
C1728       C  0.66521968  0.34919967  0.33472283     0.36200
C1729       C  0.62603203  0.34709476  0.33195103     0.36200
C1730       C  0.65552225  0.41886849  0.41085150     0.36200
C1731       C  0.61648406  0.41671605  0.40767263     0.36200
C1732       C  0.71576382  0.36972876  0.37649680    -0.21300
C1733       C  0.71329508  0.38646441  0.39477798    -0.21300
C1734       C  0.56999008  0.35733945  0.36860140    -0.21300
C1735       C  0.56755386  0.37447009  0.38640131    -0.21300
C1736       C  0.65987441  0.33772149  0.31300093    -0.22300
C1737       C  0.63512502  0.33661833  0.31113730    -0.22300
C1738       C  0.64635826  0.43833774  0.42369098    -0.22300
C1739       C  0.62160822  0.43698231  0.42164078    -0.22300
C1740       C  0.68885011  0.35321185  0.34412868    -0.17700
C1741       C  0.68032277  0.41309880  0.40905041    -0.17700
C1742       C  0.59306004  0.40792528  0.40209365    -0.17700
C1743       C  0.60120013  0.34802644  0.33814474    -0.17700
H1744       H  0.73224874  0.36037502  0.37211691     0.15200
H1745       H  0.72747877  0.39224550  0.40707987     0.15200
H1746       H  0.55648800  0.34400609  0.36353175     0.15200
H1747       H  0.55182774  0.37689750  0.39758927     0.15200
H1748       H  0.67242370  0.33076390  0.29984515     0.13500
H1749       H  0.62502158  0.32875120  0.29622873     0.13500
H1750       H  0.65644543  0.45202475  0.43359918     0.13500
H1751       H  0.60885779  0.44932271  0.42970073     0.13500
H1752       H  0.66046034  0.38688705  0.36989073     0.26800
H1753       H  0.62042530  0.38687926  0.36503749     0.26800
C1754       C  0.75830645  0.46168704  0.46003561     0.80800
N1755       N  0.76952123  0.48078335  0.44962467    -0.77500
C1756       C  0.79051785  0.48979606  0.45885756     0.83300
N1757       N  0.80035674  0.47949777  0.47859435    -0.77400
C1758       C  0.78944242  0.46057411  0.48939140     0.83400
N1759       N  0.76843856  0.45168801  0.47993143    -0.79100
C1760       C  0.95393933  0.46553215  0.27082801     0.80800
N1761       N  0.97423862  0.45549668  0.28033733    -0.77500
C1762       C  0.98441657  0.46463405  0.30096446     0.83300
N1763       N  0.97399129  0.48386910  0.31200725    -0.77400
C1764       C  0.95384801  0.49409262  0.30278114     0.83400
N1765       N  0.94398161  0.48481485  0.28222134    -0.79100
C1766       C  0.95178756  0.30462740  0.48399749     0.80800
N1767       N  0.94368102  0.28333896  0.47458169    -0.77500
C1768       C  0.95493130  0.27252945  0.45572823     0.83300
N1769       N  0.97476390  0.28333438  0.44627580    -0.77400
C1770       C  0.98332533  0.30466530  0.45534465     0.83400
N1771       N  0.97154758  0.31535885  0.47412644    -0.79100
N1772       N  0.07049878  0.38569764  0.37945978    -0.36000
N1773       N  0.10741901  0.35552390  0.40139269    -0.56600
N1774       N  0.14465409  0.38333014  0.37680607    -0.36000
N1775       N  0.10754393  0.41101492  0.35238891    -0.56600
C1776       C  0.05666756  0.36816533  0.38920722     0.27600
C1777       C  0.05681728  0.39701886  0.36278974     0.27600
C1778       C  0.15764170  0.36461272  0.38507137     0.27600
C1779       C  0.15759761  0.39341569  0.35898023     0.27600
C1780       C  0.08809435  0.34799675  0.41413255     0.36200
C1781       C  0.12726736  0.34689992  0.41264705     0.36200
C1782       C  0.08825748  0.42429475  0.34594239     0.36200
C1783       C  0.12729637  0.42298933  0.34472485     0.36200
C1784       C  0.03386944  0.36851318  0.37876197    -0.21300
C1785       C  0.03396176  0.38668530  0.36212274    -0.21300
C1786       C  0.17914227  0.36293561  0.37254382    -0.21300
C1787       C  0.17906252  0.38105342  0.35599020    -0.21300
C1788       C  0.09571110  0.33420470  0.43336818    -0.22300
C1789       C  0.12051466  0.33348008  0.43240146    -0.22300
C1790       C  0.09576725  0.44480351  0.33401156    -0.22300
C1791       C  0.12053948  0.44398399  0.33325444    -0.22300
C1792       C  0.06365578  0.35250485  0.40798740    -0.17700
C1793       C  0.06397426  0.41707413  0.34887760    -0.17700
C1794       C  0.15109091  0.41403289  0.34593059    -0.17700
C1795       C  0.15126349  0.34979981  0.40446939    -0.17700
H1796       H  0.01870422  0.35685772  0.38270960     0.15200
H1797       H  0.01885130  0.39173982  0.35085589     0.15200
H1798       H  0.19346164  0.35001945  0.37504840     0.15200
H1799       H  0.19328928  0.38475020  0.34327367     0.15200
H1800       H  0.08456471  0.32546274  0.44664180     0.13500
H1801       H  0.13222628  0.32401856  0.44471877     0.13500
H1802       H  0.08455535  0.45863576  0.32624014     0.13500
H1803       H  0.13220911  0.45705059  0.32477439     0.13500
H1804       H  0.08784472  0.39050181  0.38484263     0.26800
H1805       H  0.12857918  0.38966676  0.38388224     0.26800
N1806       N  0.86960990  0.38076291  0.57169827    -0.36000
N1807       N  0.89496819  0.35251502  0.60721837    -0.56600
N1808       N  0.87156203  0.38057135  0.64560214    -0.36000
N1809       N  0.84363640  0.40602126  0.60991569    -0.56600
C1810       C  0.87976383  0.36378496  0.55737530     0.27600
C1811       C  0.85154312  0.39093998  0.55896008     0.27600
C1812       C  0.88066583  0.36201359  0.65812409     0.27600
C1813       C  0.85438043  0.39070498  0.65949885     0.27600
C1814       C  0.90749726  0.34567634  0.58746369     0.36200
C1815       C  0.90742506  0.34461809  0.62657526     0.36200
C1816       C  0.83583010  0.41862914  0.59080094     0.36200
C1817       C  0.83759070  0.41896078  0.62968374     0.36200
C1818       C  0.86808564  0.36323457  0.53520748    -0.21300
C1819       C  0.85024898  0.38034819  0.53621578    -0.21300
C1820       C  0.86928434  0.36047984  0.68026010    -0.21300
C1821       C  0.85273620  0.37868584  0.68115680    -0.21300
C1822       C  0.92790116  0.33309535  0.59431263    -0.22300
C1823       C  0.92782480  0.33237693  0.61909381    -0.22300
C1824       C  0.82453309  0.43957543  0.59844274    -0.22300
C1825       C  0.82568819  0.43980113  0.62315227    -0.22300
C1826       C  0.90006509  0.34966328  0.56335595    -0.17700
C1827       C  0.83738013  0.41067634  0.56666064    -0.17700
C1828       C  0.84067708  0.41100184  0.65349684    -0.17700
C1829       C  0.89990088  0.34725060  0.65080376    -0.17700
H1830       H  0.87209541  0.35178629  0.51984336     0.15200
H1831       H  0.83794211  0.38471763  0.52171636     0.15200
H1832       H  0.87259651  0.34760084  0.69437520     0.15200
H1833       H  0.84080518  0.38257174  0.69603834     0.15200
H1834       H  0.94134277  0.32512311  0.58268830     0.13500
H1835       H  0.94120615  0.32376963  0.63031113     0.13500
H1836       H  0.81607588  0.45310830  0.58739287     0.13500
H1837       H  0.81824981  0.45348098  0.63496865     0.13500
H1838       H  0.87572616  0.38622017  0.58860313     0.26800
H1839       H  0.87767992  0.38676353  0.62914857     0.26800
N1840       N  0.87616370  0.38954976  0.17941385    -0.36000
N1841       N  0.90300385  0.41750844  0.14351817    -0.56600
N1842       N  0.87637637  0.39234167  0.10562446    -0.36000
N1843       N  0.85232113  0.36178762  0.14130652    -0.56600
C1844       C  0.89208560  0.40146805  0.19392640     0.27600
C1845       C  0.86539557  0.37220543  0.19270304     0.27600
C1846       C  0.89420156  0.40290365  0.09290457     0.27600
C1847       C  0.86746514  0.37417203  0.09173203     0.27600
C1848       C  0.90993162  0.42969354  0.16366111     0.36200
C1849       C  0.91026432  0.43074631  0.12453163     0.36200
C1850       C  0.84027534  0.35261916  0.16027030     0.36200
C1851       C  0.84035415  0.35438487  0.12121644     0.36200
C1852       C  0.89116923  0.39175030  0.21683525    -0.21300
C1853       C  0.87440547  0.37336846  0.21605530    -0.21300
C1854       C  0.89658866  0.39129623  0.07079125    -0.21300
C1855       C  0.87966078  0.37323985  0.07001404    -0.21300
C1856       C  0.92192765  0.45072285  0.15742700    -0.22300
C1857       C  0.92202891  0.45144495  0.13263584    -0.22300
C1858       C  0.82076408  0.33896567  0.15213820    -0.22300
C1859       C  0.82076156  0.34016131  0.12739055    -0.22300
C1860       C  0.90672965  0.42151637  0.18754321    -0.17700
C1861       C  0.84696573  0.35593996  0.18477852    -0.17700
C1862       C  0.84775018  0.35915024  0.09739278    -0.17700
C1863       C  0.90765283  0.42346563  0.10008402    -0.17700
H1864       H  0.90139510  0.39739526  0.23261876     0.15200
H1865       H  0.86936555  0.36219000  0.23107469     0.15200
H1866       H  0.90921455  0.39540844  0.05661248     0.15200
H1867       H  0.87668636  0.36079073  0.05510752     0.15200
H1868       H  0.92986934  0.46409858  0.16948035     0.13500
H1869       H  0.93008076  0.46543784  0.12184225     0.13500
H1870       H  0.80785955  0.32919674  0.16290352     0.13500
H1871       H  0.80793912  0.33139006  0.11532832     0.13500
H1872       H  0.87216198  0.39379516  0.16176619     0.26800
H1873       H  0.86957315  0.39811379  0.12207508     0.26800
N1874       N  0.87395174  0.57625118  0.38337489    -0.36000
N1875       N  0.89674410  0.61492360  0.35586050    -0.56600
N1876       N  0.86849607  0.65001352  0.38224234    -0.36000
N1877       N  0.84321477  0.61126283  0.40707544    -0.56600
C1878       C  0.88543359  0.56338972  0.36614665     0.27600
C1879       C  0.85725768  0.56150949  0.39324880     0.27600
C1880       C  0.87794262  0.66410879  0.36498052     0.27600
C1881       C  0.84974719  0.66209574  0.39180922     0.27600
C1882       C  0.91073758  0.59628619  0.34892772     0.36200
C1883       C  0.90807188  0.63525485  0.34872719     0.36200
C1884       C  0.83750473  0.59159355  0.42001096     0.36200
C1885       C  0.83494675  0.63049266  0.41957381     0.36200
C1886       C  0.87617802  0.54008091  0.36530718    -0.21300
C1887       C  0.85836074  0.53892219  0.38234178    -0.21300
C1888       C  0.86523614  0.68556642  0.36390142    -0.21300
C1889       C  0.84725512  0.68413682  0.38057468    -0.21300
C1890       C  0.93091860  0.60476378  0.33701014    -0.22300
C1891       C  0.92921675  0.62948055  0.33685428    -0.22300
C1892       C  0.82541119  0.59833009  0.44076986    -0.22300
C1893       C  0.82381972  0.62302585  0.44051135    -0.22300
C1894       C  0.90476704  0.57169748  0.35187883    -0.17700
C1895       C  0.84174812  0.56758749  0.41250706    -0.17700
C1896       C  0.83574921  0.65449327  0.41140669    -0.17700
C1897       C  0.89862914  0.65875701  0.35131825    -0.17700
H1898       H  0.88168371  0.52538217  0.35362532     0.15200
H1899       H  0.84750731  0.52318172  0.38626779     0.15200
H1900       H  0.86854023  0.70092361  0.35256998     0.15200
H1901       H  0.83409609  0.69801104  0.38424118     0.15200
H1902       H  0.94523034  0.59422501  0.32903986     0.13500
H1903       H  0.94191834  0.64172688  0.32863875     0.13500
H1904       H  0.81837625  0.58667065  0.45458228     0.13500
H1905       H  0.81525679  0.63419021  0.45405375     0.13500
H1906       H  0.87819371  0.59368884  0.38890986     0.26800
H1907       H  0.87537536  0.63381701  0.38826064     0.26800
N1908       N  0.87831239  0.18740519  0.37331764    -0.36000
N1909       N  0.90351182  0.14853790  0.39864827    -0.56600
N1910       N  0.87467192  0.11316887  0.37205918    -0.36000
N1911       N  0.85193995  0.15211215  0.34427710    -0.56600
C1912       C  0.89501096  0.20045625  0.38582566     0.27600
C1913       C  0.86773890  0.20228239  0.35719959     0.27600
C1914       C  0.89209154  0.09902849  0.38146236     0.27600
C1915       C  0.86498338  0.10091326  0.35312358     0.27600
C1916       C  0.91196382  0.16760897  0.41164742     0.36200
C1917       C  0.91035702  0.12844842  0.41042691     0.36200
C1918       C  0.84041558  0.17220309  0.33688045     0.36200
C1919       C  0.83877242  0.13302651  0.33619965     0.36200
C1920       C  0.89482305  0.22404208  0.37770989    -0.21300
C1921       C  0.87771076  0.22516678  0.35970349    -0.21300
C1922       C  0.89337046  0.07760245  0.36843795    -0.21300
C1923       C  0.87626881  0.07878761  0.35055901    -0.21300
C1924       C  0.92454445  0.15956246  0.43165039    -0.22300
C1925       C  0.92340324  0.13479303  0.43095546    -0.22300
C1926       C  0.81998169  0.16582346  0.32371710    -0.22300
C1927       C  0.81882210  0.14104067  0.32345418    -0.22300
C1928       C  0.90956932  0.19214603  0.40518376    -0.17700
C1929       C  0.84852678  0.19620111  0.34111345    -0.17700
C1930       C  0.84547184  0.10853500  0.33870208    -0.17700
C1931       C  0.90643274  0.10451517  0.40191706    -0.17700
H1932       H  0.90567843  0.23906605  0.38423292     0.15200
H1933       H  0.87297581  0.24115531  0.34979040     0.15200
H1934       H  0.90548327  0.06268552  0.37140064     0.15200
H1935       H  0.87263211  0.06493183  0.33710023     0.15200
H1936       H  0.93374211  0.17038900  0.44526380     0.13500
H1937       H  0.93152101  0.12285385  0.44393203     0.13500
H1938       H  0.80722623  0.17776524  0.31520127     0.13500
H1939       H  0.80500348  0.13018939  0.31462131     0.13500
H1940       H  0.87364370  0.16966608  0.37650463     0.26800
H1941       H  0.86874902  0.12958262  0.37892805     0.26800
O1942       O  0.02003807  0.28077291  0.68643424    -0.77900
C1943       C  0.97300135  0.21396999  0.69339022     0.83200
O1944       O  0.95670411  0.29396926  0.74163949    -0.79000
O1945       O  0.98110423  0.21500790  0.77053212    -0.80500
O1946       O  0.05621340  0.23650937  0.75505132    -0.80300
O1947       O  0.05267331  0.27947604  0.70967559    -0.78900
Zn1948     Zn  0.99512206  0.26201257  0.70398189     1.55700
O1949       O  0.03250819  0.20451176  0.74836815    -0.80300
Cd1950     Cd  0.03790969  0.26475270  0.74016661     1.59700
Cd1951     Cd  0.98297962  0.27451853  0.76085112     1.59600
O1952       O  0.04124339  0.29205143  0.76458291    -0.80300
O1953       O  0.00354906  0.25619927  0.73668363    -1.90800
Cd1954     Cd  0.00036667  0.22108090  0.74056177     1.59900
O1955       O  0.00519652  0.29856122  0.78108621    -0.80300
O1956       O  0.97927523  0.20571261  0.71375676    -0.78900
C1957       C  0.95383695  0.29422338  0.71877458     0.83600
C1958       C  0.04173794  0.28691185  0.69095898     0.83300
O1959       O  0.98135587  0.23386682  0.68582723    -0.77900
C1960       C  0.05150212  0.21416257  0.75741439     0.84100
O1961       O  0.96757831  0.28292638  0.70460036    -0.78000
C1962       C  0.02778486  0.30316511  0.77933786     0.84200
C1963       C  0.96839367  0.22686140  0.78533565     0.84600
O1964       O  0.96601913  0.24976924  0.78413859    -0.80400
C1965       C  0.02489533  0.21059502  0.99733295     0.80800
N1966       N  0.00675219  0.19892581  0.00878634    -0.77500
C1967       C  0.99788948  0.20745470  0.02995682     0.83300
N1968       N  0.00757009  0.22797745  0.03973113    -0.77400
C1969       C  0.02573341  0.23999680  0.02855352     0.83400
N1970       N  0.03429387  0.23108845  0.00739324    -0.79100
N1971       N  0.10440150  0.32323098  0.11157547    -0.36000
N1972       N  0.13223702  0.35817954  0.13980731    -0.56600
N1973       N  0.10548001  0.39712877  0.11667520    -0.36000
N1974       N  0.08027115  0.36231138  0.08579602    -0.56600
C1975       C  0.12019783  0.30833023  0.12258628     0.27600
C1976       C  0.09352055  0.31056375  0.09350712     0.27600
C1977       C  0.12367815  0.40959405  0.12744272     0.27600
C1978       C  0.09586860  0.41173770  0.09987976     0.27600
C1979       C  0.13942157  0.33800674  0.15117155     0.36200
C1980       C  0.14088517  0.37708727  0.15288036     0.36200
C1981       C  0.06797494  0.34337264  0.07616684     0.36200
C1982       C  0.06831386  0.38241793  0.07928845     0.36200
C1983       C  0.11921625  0.28582949  0.11144894    -0.21300
C1984       C  0.10246280  0.28723879  0.09312230    -0.21300
C1985       C  0.12542586  0.43239631  0.11757281    -0.21300
C1986       C  0.10784865  0.43378116  0.10026996    -0.21300
C1987       C  0.15301813  0.34417137  0.17141736    -0.22300
C1988       C  0.15396796  0.36893957  0.17247319    -0.22300
C1989       C  0.04825710  0.35154448  0.06314975    -0.22300
C1990       C  0.04847276  0.37630920  0.06515224    -0.22300
C1991       C  0.13485282  0.31411500  0.14294759    -0.17700
C1992       C  0.07473430  0.31888402  0.07824575    -0.17700
C1993       C  0.07607608  0.40620774  0.08466140    -0.17700
C1994       C  0.13824182  0.40155695  0.14662260    -0.17700
H1995       H  0.12943530  0.26996743  0.11609641     0.15200
H1996       H  0.09728020  0.27261375  0.08103987     0.15200
H1997       H  0.13809538  0.44663951  0.12230873     0.15200
H1998       H  0.10441350  0.44929977  0.08915895     0.15200
H1999       H  0.16154192  0.33209788  0.18400797     0.13500
H2000       H  0.16334864  0.37971197  0.18600650     0.13500
H2001       H  0.03514490  0.34079705  0.05316701     0.13500
H2002       H  0.03566465  0.38843270  0.05697248     0.13500
H2003       H  0.10026153  0.34062551  0.11692156     0.26800
H2004       H  0.09917994  0.38019765  0.12138225     0.26800
C2005       C  0.02573393  0.05156915  0.22627912     0.80800
N2006       N  0.00613024  0.06213932  0.21609936    -0.77500
C2007       C  0.99524985  0.05202031  0.19633416     0.83300
N2008       N  0.00437149  0.03141474  0.18669298    -0.77400
C2009       C  0.02391399  0.02072201  0.19659217     0.83400
N2010       N  0.03448187  0.03097925  0.21631000    -0.79100
C2011       C  0.18204277  0.23473637  0.19145127     0.80800
N2012       N  0.20271038  0.22615213  0.18163820    -0.77500
C2013       C  0.21462473  0.20741970  0.19157849     0.83300
N2014       N  0.20562940  0.19718282  0.21169899    -0.77400
C2015       C  0.18503547  0.20539236  0.22198283     0.83400
N2016       N  0.17320594  0.22419339  0.21166285    -0.79100
N2017       N  0.11245111  0.12465320  0.31064386    -0.36000
N2018       N  0.08913754  0.09639679  0.34823948    -0.56600
N2019       N  0.12152860  0.11845729  0.38308463    -0.36000
N2020       N  0.14713662  0.14412153  0.34543642    -0.56600
C2021       C  0.09948827  0.10853095  0.29736054     0.27600
C2022       C  0.12951501  0.13401776  0.29607489     0.27600
C2023       C  0.11105874  0.10144485  0.39675896     0.27600
C2024       C  0.14119927  0.12647392  0.39522357     0.27600
C2025       C  0.07389872  0.09131075  0.32978250     0.36200
C2026       C  0.07829423  0.08870792  0.36850939     0.36200
C2027       C  0.15227714  0.15824239  0.32649888     0.36200
C2028       C  0.15673725  0.15526656  0.36503479     0.36200
C2029       C  0.10840059  0.10770928  0.27406023    -0.21300
C2030       C  0.12731043  0.12384409  0.27324501    -0.21300
C2031       C  0.12435700  0.09849553  0.41777991    -0.21300
C2032       C  0.14341658  0.11434252  0.41680603    -0.21300
C2033       C  0.05338174  0.07987514  0.33828982    -0.22300
C2034       C  0.05615022  0.07828478  0.36289347    -0.22300
C2035       C  0.16570125  0.17815676  0.33396642    -0.22300
C2036       C  0.16846203  0.17631336  0.35848901    -0.22300
C2037       C  0.07904849  0.09548036  0.30527037    -0.17700
C2038       C  0.14591559  0.15265963  0.30246337    -0.17700
C2039       C  0.15551838  0.14631024  0.38863734    -0.17700
C2040       C  0.08875852  0.09004428  0.39178266    -0.17700
H2041       H  0.10184197  0.09674812  0.25910809     0.15200
H2042       H  0.13810164  0.12774659  0.25758028     0.15200
H2043       H  0.12041230  0.08659251  0.43256736     0.15200
H2044       H  0.15697984  0.11712954  0.43070196     0.15200
H2045       H  0.03813306  0.07320497  0.32784325     0.13500
H2046       H  0.04349193  0.07014074  0.37517696     0.13500
H2047       H  0.17269469  0.19251121  0.32292301     0.13500
H2048       H  0.17800002  0.18898189  0.37014691     0.13500
H2049       H  0.10881642  0.13014677  0.32817242     0.26800
H2050       H  0.11450126  0.12579082  0.36748489     0.26800
C2051       C  0.21642761  0.04997784  0.04095729     0.80800
N2052       N  0.20598042  0.03031061  0.05113480    -0.77500
C2053       C  0.18488921  0.02093847  0.04223216     0.83300
N2054       N  0.17407187  0.03182367  0.02316780    -0.77400
C2055       C  0.18412431  0.05157411  0.01282345     0.83400
N2056       N  0.20534421  0.06042902  0.02183852    -0.79100
N2057       N  0.30476455  0.13202346  0.11498172    -0.36000
N2058       N  0.34227161  0.10946394  0.08633950    -0.56600
N2059       N  0.37821250  0.13918852  0.11243465    -0.36000
N2060       N  0.34069903  0.16443392  0.13818107    -0.56600
C2061       C  0.29114720  0.11926457  0.09886143     0.27600
C2062       C  0.29026820  0.14867252  0.12535407     0.27600
C2063       C  0.39213063  0.12929973  0.09513785     0.27600
C2064       C  0.39128102  0.15710985  0.12299598     0.27600
C2065       C  0.32361227  0.09504846  0.07938411     0.36200
C2066       C  0.36264793  0.09918625  0.07787692     0.36200
C2067       C  0.32085566  0.17199678  0.14992185     0.36200
C2068       C  0.35988684  0.17466160  0.14961353     0.36200
C2069       C  0.26768028  0.12778143  0.09924891    -0.21300
C2070       C  0.26711511  0.14623241  0.11593859    -0.21300
C2071       C  0.41430488  0.14110149  0.09475036    -0.21300
C2072       C  0.41377214  0.15858874  0.11234133    -0.21300
C2073       C  0.33216209  0.07568563  0.06601421    -0.22300
C2074       C  0.35688230  0.07831263  0.06505279    -0.22300
C2075       C  0.32742663  0.18772170  0.16850596    -0.22300
C2076       C  0.35220045  0.18932200  0.16836360    -0.22300
C2077       C  0.29894049  0.09968607  0.08421339    -0.17700
C2078       C  0.29686126  0.16547774  0.14374950    -0.17700
C2079       C  0.38418561  0.17132553  0.14291526    -0.17700
C2080       C  0.38627551  0.10879172  0.08087738    -0.17700
H2081       H  0.25248450  0.12145108  0.08852281     0.15200
H2082       H  0.25137844  0.15673072  0.12054138     0.15200
H2083       H  0.42952694  0.13729912  0.08324735     0.15200
H2084       H  0.42840260  0.17087696  0.11688811     0.15200
H2085       H  0.32169592  0.06122811  0.05775391     0.13500
H2086       H  0.36918919  0.06629707  0.05587741     0.13500
H2087       H  0.31561427  0.19705418  0.18089150     0.13500
H2088       H  0.36325197  0.20016032  0.18051655     0.13500
H2089       H  0.32255840  0.12878693  0.11958660     0.26800
H2090       H  0.36153224  0.13290072  0.11784137     0.26800
N2091       N  0.10812725  0.13165714  0.92071993    -0.36000
N2092       N  0.09132697  0.15980884  0.87946520    -0.56600
N2093       N  0.12044705  0.12997942  0.84783952    -0.36000
N2094       N  0.13999914  0.10462528  0.88940827    -0.56600
C2095       C  0.09573566  0.14931721  0.93206747     0.27600
C2096       C  0.12213677  0.12073720  0.93742879     0.27600
C2097       C  0.11419082  0.14780858  0.83275069     0.27600
C2098       C  0.13944105  0.11863693  0.83790108     0.27600
C2099       C  0.07594279  0.16820708  0.89629576     0.36200
C2100       C  0.08297965  0.16748874  0.85797325     0.36200
C2101       C  0.14364363  0.09237990  0.90998366     0.36200
C2102       C  0.14934046  0.09102660  0.87147962     0.36200
C2103       C  0.10164036  0.14936032  0.95641710    -0.21300
C2104       C  0.11830828  0.13138996  0.95977169    -0.21300
C2105       C  0.12924950  0.14771015  0.81291317    -0.21300
C2106       C  0.14527496  0.12928978  0.81620012    -0.21300
C2107       C  0.05795714  0.18167150  0.88548113    -0.22300
C2108       C  0.06242452  0.18120966  0.86116236    -0.22300
C2109       C  0.15563890  0.07103859  0.90514463    -0.22300
C2110       C  0.15912332  0.07010866  0.88070473    -0.22300
C2111       C  0.07844516  0.16471926  0.92136956    -0.17700
C2112       C  0.13757735  0.10084661  0.93323912    -0.17700
C2113       C  0.15078078  0.09808796  0.84718846    -0.17700
C2114       C  0.09435855  0.16320653  0.83567105    -0.17700
H2115       H  0.09464784  0.16111932  0.97037860     0.15200
H2116       H  0.12654287  0.12662211  0.97677648     0.15200
H2117       H  0.12865664  0.15958021  0.79759240     0.15200
H2118       H  0.15948012  0.12419490  0.80390275     0.15200
H2119       H  0.04320405  0.19092076  0.89420386     0.13500
H2120       H  0.05183646  0.19003633  0.84743204     0.13500
H2121       H  0.16134219  0.05758029  0.91789754     0.13500
H2122       H  0.16813023  0.05582947  0.87089929     0.13500
H2123       H  0.10614664  0.12666432  0.90279522     0.26800
H2124       H  0.11130680  0.12478435  0.86318430     0.26800
N2125       N  0.10282086  0.93469434  0.11863015    -0.36000
N2126       N  0.07832004  0.89761273  0.14707972    -0.56600
N2127       N  0.10859121  0.86119191  0.12513424    -0.36000
N2128       N  0.13559422  0.89846983  0.09950458    -0.56600
C2129       C  0.08992345  0.94871587  0.13388926     0.27600
C2130       C  0.11929174  0.94905351  0.10781831     0.27600
C2131       C  0.09746342  0.84781687  0.14195143     0.27600
C2132       C  0.12757567  0.84829255  0.11730022     0.27600
C2133       C  0.06490467  0.91675523  0.15366897     0.36200
C2134       C  0.06740518  0.87791709  0.15620541     0.36200
C2135       C  0.14295929  0.91737019  0.08619811     0.36200
C2136       C  0.14613529  0.87862870  0.09002617     0.36200
C2137       C  0.09802771  0.97238562  0.13238521    -0.21300
C2138       C  0.11646712  0.97259504  0.11595720    -0.21300
C2139       C  0.10928709  0.82599994  0.14447415    -0.21300
C2140       C  0.12831648  0.82634139  0.12899361    -0.21300
C2141       C  0.04546350  0.90921206  0.16734937    -0.22300
C2142       C  0.04703930  0.88457238  0.16892421    -0.22300
C2143       C  0.15859590  0.90951891  0.06841199    -0.22300
C2144       C  0.16061749  0.88497445  0.07085390    -0.22300
C2145       C  0.07070600  0.94106575  0.14882882    -0.17700
C2146       C  0.13655610  0.94173116  0.09046867    -0.17700
C2147       C  0.14354917  0.85497800  0.09892433    -0.17700
C2148       C  0.07654563  0.85425377  0.15468444    -0.17700
H2149       H  0.09141808  0.98796163  0.14217627     0.15200
H2150       H  0.12676599  0.98831935  0.11076909     0.15200
H2151       H  0.10472275  0.81122798  0.15618619     0.15200
H2152       H  0.14115094  0.81191264  0.12653605     0.15200
H2153       H  0.03174035  0.92032443  0.17558523     0.13500
H2154       H  0.03485586  0.87295064  0.17866256     0.13500
H2155       H  0.16764722  0.92033880  0.05508879     0.13500
H2156       H  0.17154376  0.87316263  0.05982550     0.13500
H2157       H  0.09990651  0.91655646  0.11510494     0.26800
H2158       H  0.10288781  0.87752680  0.11843723     0.26800
N2159       N  0.91331944  0.12617814  0.11146521    -0.36000
N2160       N  0.87517006  0.11021930  0.14412523    -0.56600
N2161       N  0.84035030  0.13678482  0.11609622    -0.36000
N2162       N  0.87861717  0.15516304  0.08562783    -0.56600
C2163       C  0.92647660  0.11586988  0.12911592     0.27600
C2164       C  0.92846473  0.14035026  0.09871822     0.27600
C2165       C  0.82720355  0.13113367  0.13558214     0.27600
C2166       C  0.82897060  0.15512193  0.10526370     0.27600
C2167       C  0.89315354  0.09577279  0.15152887     0.36200
C2168       C  0.85464813  0.10120591  0.15351908     0.36200
C2169       C  0.89802515  0.15914526  0.07162130     0.36200
C2170       C  0.85933488  0.16407916  0.07380912     0.36200
C2171       C  0.95040112  0.12303992  0.12718252    -0.21300
C2172       C  0.95165950  0.13844281  0.10803250    -0.21300
C2173       C  0.80721091  0.14591019  0.13715786    -0.21300
C2174       C  0.80836925  0.16118935  0.11800350    -0.21300
C2175       C  0.88409970  0.07773549  0.16607461    -0.22300
C2176       C  0.85960170  0.08113712  0.16725818    -0.22300
C2177       C  0.89105688  0.17089240  0.05081684    -0.22300
C2178       C  0.86649384  0.17388014  0.05213747    -0.22300
C2179       C  0.91776823  0.09947057  0.14641679    -0.17700
C2180       C  0.92212421  0.15450511  0.07856025    -0.17700
C2181       C  0.83585175  0.16557187  0.08344020    -0.17700
C2182       C  0.83174792  0.11171542  0.15080641    -0.17700
H2183       H  0.96544548  0.11775687  0.13842970     0.15200
H2184       H  0.96789722  0.14716847  0.10170150     0.15200
H2185       H  0.79313822  0.14553468  0.15056828     0.15200
H2186       H  0.79532884  0.17497437  0.11376870     0.15200
H2187       H  0.89411319  0.06365834  0.17494435     0.13500
H2188       H  0.84694914  0.07028775  0.17728076     0.13500
H2189       H  0.90249115  0.17709076  0.03640986     0.13500
H2190       H  0.85530134  0.18285862  0.03899945     0.13500
H2191       H  0.89522522  0.12291845  0.10786385     0.26800
H2192       H  0.85516812  0.12748603  0.10957528     0.26800
C2193       C  0.24455840  0.05795477  0.07595039    -0.20700
C2194       C  0.23899824  0.06078651  0.05137753    -0.08700
C2195       C  0.25460958  0.07498978  0.03732489     0.30100
C2196       C  0.27482733  0.08644882  0.04779555    -0.20700
C2197       C  0.27978730  0.08429914  0.07248895    -0.08700
C2198       C  0.26453507  0.06977671  0.08647031     0.30100
F2199       F  0.26845365  0.06781836  0.11052587    -0.19300
H2200       H  0.23286390  0.04734940  0.08729931     0.18500
H2201       H  0.28616054  0.09778889  0.03679159     0.18500
F2202       F  0.25025313  0.07805681  0.01348060    -0.19300
C2203       C  0.17354121  0.96665459  0.08252785    -0.20700
C2204       C  0.14945423  0.96093273  0.07693073    -0.08700
C2205       C  0.13742587  0.97420482  0.05920053     0.30100
C2206       C  0.14917601  0.99328500  0.04771243    -0.20700
C2207       C  0.17316985  0.99964222  0.05372343    -0.08700
C2208       C  0.18536091  0.98572683  0.07107797     0.30100
F2209       F  0.20869814  0.99043900  0.07709693    -0.19300
H2210       H  0.18309005  0.95650373  0.09609619     0.18500
H2211       H  0.13923852  0.00337493  0.03439242     0.18500
F2212       F  0.11420287  0.96883334  0.05320881    -0.19300
C2213       C  0.13668344  0.07054306  0.96645053    -0.20700
C2214       C  0.14901266  0.08875325  0.95419909    -0.08700
C2215       C  0.17283521  0.09443354  0.96095332     0.30100
C2216       C  0.18403170  0.08227896  0.97989795    -0.20700
C2217       C  0.17184142  0.06393705  0.99237613    -0.08700
C2218       C  0.14793775  0.05809838  0.98524775     0.30100
F2219       F  0.13528885  0.04046993  0.99637370    -0.19300
H2220       H  0.11840302  0.06574872  0.96118701     0.18500
H2221       H  0.20241015  0.08718069  0.98465390     0.18500
F2222       F  0.18532610  0.11165546  0.94904134    -0.19300
C2223       C  0.18785270  0.17304781  0.25309293    -0.20700
C2224       C  0.17547600  0.19306453  0.24369825    -0.08700
C2225       C  0.15389816  0.20033856  0.25491033     0.30100
C2226       C  0.14461086  0.18727901  0.27421820    -0.20700
C2227       C  0.15672597  0.16703511  0.28290789    -0.08700
C2228       C  0.17862238  0.16020079  0.27251571     0.30100
F2229       F  0.19074560  0.14076447  0.28081710    -0.19300
H2230       H  0.20459097  0.16698664  0.24519690     0.18500
H2231       H  0.12777458  0.19281732  0.28231276     0.18500
F2232       F  0.14155159  0.21984397  0.24718878    -0.19300
C2233       C  0.26837836  0.19958549  0.14999775    -0.20700
C2234       C  0.27701405  0.17712224  0.15717390    -0.08700
C2235       C  0.26578287  0.16503214  0.17611759     0.30100
C2236       C  0.24587947  0.17523871  0.18757001    -0.20700
C2237       C  0.23666334  0.19756943  0.18011918    -0.08700
C2238       C  0.24834491  0.20977457  0.16126345     0.30100
F2239       F  0.24042227  0.23144535  0.15349095    -0.19300
H2240       H  0.27689510  0.20896648  0.13528521     0.18500
H2241       H  0.23736757  0.16532918  0.20192658     0.18500
F2242       F  0.27382562  0.14313692  0.18317162    -0.19300
C2243       C  0.06612997  0.05948182  0.28135711    -0.20700
C2244       C  0.06343615  0.08402340  0.28657212    -0.08700
C2245       C  0.04764099  0.09784110  0.27256127     0.30100
C2246       C  0.03487294  0.08710994  0.25334928    -0.20700
C2247       C  0.03801404  0.06254820  0.24761588    -0.08700
C2248       C  0.05368936  0.04879408  0.26205389     0.30100
F2249       F  0.05719369  0.02499048  0.25757974    -0.19300
H2250       H  0.07845351  0.04873159  0.29191121     0.18500
H2251       H  0.02307899  0.09818541  0.24255216     0.18500
F2252       F  0.04503068  0.12177114  0.27716417    -0.19300
C2253       C  0.96638961  0.05505922  0.16181682    -0.20700
C2254       C  0.97416664  0.06347932  0.18464646    -0.08700
C2255       C  0.96183194  0.08288131  0.19554540     0.30100
C2256       C  0.94278518  0.09395370  0.18340037    -0.20700
C2257       C  0.93582048  0.08590510  0.16035663    -0.08700
C2258       C  0.94742522  0.06617200  0.14977331     0.30100
F2259       F  0.94072769  0.05806347  0.12753050    -0.19300
H2260       H  0.97531318  0.04014057  0.15291784     0.18500
H2261       H  0.93384809  0.10923555  0.19166553     0.18500
F2262       F  0.96819014  0.09134596  0.21774578    -0.19300
C2263       C  0.06335156  0.96611637  0.18542285    -0.20700
C2264       C  0.05696715  0.95995556  0.16170914    -0.08700
C2265       C  0.03851687  0.97254342  0.15004987     0.30100
C2266       C  0.02726507  0.99183264  0.16175745    -0.20700
C2267       C  0.03433765  0.99884926  0.18524918    -0.08700
C2268       C  0.05214499  0.98532061  0.19719393     0.30100
F2269       F  0.05897910  0.99065525  0.22015551    -0.19300
H2270       H  0.07744349  0.95630767  0.19462086     0.18500
H2271       H  0.01349925  0.00167599  0.15213394     0.18500
F2272       F  0.03180838  0.96646074  0.12720529    -0.19300
C2273       C  0.13395154  0.27980011  0.17208262    -0.20700
C2274       C  0.14689547  0.29397367  0.15577276    -0.08700
C2275       C  0.17124089  0.28883329  0.15156993     0.30100
C2276       C  0.18238572  0.26970093  0.16333940    -0.20700
C2277       C  0.16959957  0.25534397  0.17976733    -0.08700
C2278       C  0.14515701  0.26072282  0.18411851     0.30100
F2279       F  0.13189775  0.24732142  0.19952209    -0.19300
H2280       H  0.11511370  0.28354848  0.17545278     0.18500
H2281       H  0.20119606  0.26621962  0.15959597     0.18500
F2282       F  0.18418803  0.30226180  0.13592373    -0.19300
C2283       C  0.03072309  0.26825483  0.06387541    -0.20700
C2284       C  0.03713480  0.26163751  0.04021318    -0.08700
C2285       C  0.05515266  0.27529588  0.02855570     0.30100
C2286       C  0.06676612  0.29447800  0.04065264    -0.20700
C2287       C  0.06071610  0.30035751  0.06446166    -0.08700
C2288       C  0.04243792  0.28731948  0.07589455     0.30100
F2289       F  0.03640292  0.29269234  0.09898257    -0.19300
H2290       H  0.01702065  0.25828340  0.07343474     0.18500
H2291       H  0.08093691  0.30438003  0.03167840     0.18500
F2292       F  0.06192870  0.26999188  0.00566231    -0.19300
C2293       C  0.05345353  0.21305236  0.96259674    -0.20700
C2294       C  0.03588010  0.19997582  0.97531196    -0.08700
C2295       C  0.03048244  0.17611491  0.96779407     0.30100
C2296       C  0.04362439  0.16524129  0.94931485    -0.20700
C2297       C  0.06209171  0.17789148  0.93782458    -0.08700
C2298       C  0.06643219  0.20213358  0.94395966     0.30100
F2299       F  0.08405800  0.21479130  0.93278572    -0.19300
H2300       H  0.05779708  0.23151027  0.96760622     0.18500
H2301       H  0.04007915  0.14653599  0.94458726     0.18500
F2302       F  0.01345549  0.16271323  0.97900697    -0.19300
C2303       C  0.95135349  0.18870974  0.07650130    -0.20700
C2304       C  0.94166309  0.16768333  0.06594196    -0.08700
C2305       C  0.95051174  0.15960858  0.04368500     0.30100
C2306       C  0.96864745  0.17266777  0.03206716    -0.20700
C2307       C  0.97846247  0.19390884  0.04253944    -0.08700
C2308       C  0.96963622  0.20165699  0.06511089     0.30100
F2309       F  0.97861034  0.22165293  0.07638249    -0.19300
H2310       H  0.94473726  0.19504110  0.09375465     0.18500
H2311       H  0.97500339  0.16604975  0.01483642     0.18500
F2312       F  0.94155269  0.13917474  0.03320120    -0.19300
C2313       C  0.06101800  0.17537662  0.77759323    -0.20700
C2314       C  0.06659778  0.19984994  0.77395430    -0.08700
C2315       C  0.08301524  0.21152478  0.78989643     0.30100
C2316       C  0.09215717  0.19940962  0.80980035    -0.20700
C2317       C  0.08532161  0.17555858  0.81404244    -0.08700
C2318       C  0.07034441  0.16329393  0.79747005     0.30100
F2319       F  0.06397921  0.13995301  0.80111839    -0.19300
H2320       H  0.04841632  0.16591344  0.76579284     0.18500
H2321       H  0.10412086  0.20881053  0.82230230     0.18500
F2322       F  0.08901260  0.23511834  0.78734426    -0.19300
C2323       C  0.92106834  0.29569066  0.68910025    -0.20700
C2324       C  0.93481886  0.30785745  0.70689018    -0.08700
C2325       C  0.93583090  0.33309386  0.70704400     0.30100
C2326       C  0.92459999  0.34584729  0.68857266    -0.20700
C2327       C  0.91216345  0.33350975  0.66994975    -0.08700
C2328       C  0.90969637  0.30840076  0.67081199     0.30100
F2329       F  0.89680278  0.29621669  0.65365489    -0.19300
H2330       H  0.92053968  0.27615041  0.68848449     0.18500
H2331       H  0.92604129  0.36533110  0.68840747     0.18500
F2332       F  0.94941542  0.34518028  0.72371621    -0.19300
C2333       C  0.94011559  0.34115888  0.50847759    -0.20700
C2334       C  0.93873028  0.31608617  0.50451856    -0.08700
C2335       C  0.92427338  0.30220826  0.52007826     0.30100
C2336       C  0.91213746  0.31313533  0.53933181    -0.20700
C2337       C  0.91367137  0.33809823  0.54324267    -0.08700
C2338       C  0.92743908  0.35211756  0.52740666     0.30100
F2339       F  0.92848986  0.37644553  0.53021378    -0.19300
H2340       H  0.95065178  0.35238055  0.49661527     0.18500
H2341       H  0.90127797  0.30212905  0.55111512     0.18500
F2342       F  0.92200080  0.27799653  0.51695875    -0.19300
C2343       C  0.95559301  0.23980249  0.42398469    -0.20700
C2344       C  0.94470369  0.25006689  0.44452084    -0.08700
C2345       C  0.92326817  0.23937343  0.45317837     0.30100
C2346       C  0.91247510  0.21999449  0.44075581    -0.20700
C2347       C  0.92285735  0.21065873  0.41974266    -0.08700
C2348       C  0.94481872  0.22026881  0.41173520     0.30100
F2349       F  0.95529229  0.21134966  0.39151174    -0.19300
H2350       H  0.97214019  0.24730106  0.41691881     0.18500
H2351       H  0.89558559  0.21262702  0.44717596     0.18500
F2352       F  0.91220290  0.24793766  0.47322207    -0.19300
C2353       C  0.00945544  0.34120531  0.44821124    -0.20700
C2354       C  0.00478635  0.31649054  0.44418907    -0.08700
C2355       C  0.02048275  0.30351465  0.42887898     0.30100
C2356       C  0.03989101  0.31513282  0.41769898    -0.20700
C2357       C  0.04409510  0.33985825  0.42139062    -0.08700
C2358       C  0.02876675  0.35280025  0.43684017     0.30100
F2359       F  0.03235204  0.37677412  0.44067688    -0.19300
H2360       H  0.99781623  0.35176356  0.45976917     0.18500
H2361       H  0.05146316  0.30489985  0.40577547     0.18500
F2362       F  0.01721551  0.27956037  0.42465252    -0.19300
C2363       C  0.92613368  0.52950634  0.30259341    -0.20700
C2364       C  0.94238631  0.51481745  0.31521699    -0.08700
C2365       C  0.94696795  0.51986542  0.33980214     0.30100
C2366       C  0.93527223  0.53894302  0.35137475    -0.20700
C2367       C  0.91894408  0.55330130  0.33873220    -0.08700
C2368       C  0.91452374  0.54861393  0.31422421     0.30100
F2369       F  0.89836830  0.56202421  0.30181688    -0.19300
H2370       H  0.92223259  0.52610146  0.28371302     0.18500
H2371       H  0.93847900  0.54220059  0.37041215     0.18500
F2372       F  0.96193460  0.50585515  0.35298742    -0.19300
C2373       C  0.95387436  0.43705716  0.23519592    -0.20700
C2374       C  0.94230567  0.45526208  0.24862197    -0.08700
C2375       C  0.91937112  0.46315688  0.24073121     0.30100
C2376       C  0.90831973  0.45267582  0.22039606    -0.20700
C2377       C  0.91982056  0.43434125  0.20740267    -0.08700
C2378       C  0.94279468  0.42675126  0.21474949     0.30100
F2379       F  0.95416641  0.40886964  0.20249830    -0.19300
H2380       H  0.97145631  0.43058574  0.24061387     0.18500
H2381       H  0.89047754  0.45850640  0.21503621     0.18500
F2382       F  0.90717363  0.48054363  0.25289726    -0.19300
C2383       C  0.03885559  0.42427035  0.31199811    -0.20700
C2384       C  0.04487934  0.43050252  0.33586113    -0.08700
C2385       C  0.03184717  0.44859873  0.34770857     0.30100
C2386       C  0.01270906  0.45994266  0.33599284    -0.20700
C2387       C  0.00594148  0.45328191  0.31228032    -0.08700
C2388       C  0.01954030  0.43546168  0.30025093     0.30100
F2389       F  0.01417963  0.42866301  0.27726270    -0.19300
H2390       H  0.04884099  0.41032159  0.30266606     0.18500
H2391       H  0.00280943  0.47358493  0.34583718     0.18500
F2392       F  0.03735546  0.45494276  0.37079831    -0.19300
C2393       C  0.78892697  0.43070128  0.52301045    -0.20700
C2394       C  0.80111133  0.44894707  0.51040554    -0.08700
C2395       C  0.82483379  0.45530231  0.51766728     0.30100
C2396       C  0.83625347  0.44291149  0.53617865    -0.20700
C2397       C  0.82426971  0.42435392  0.54808160    -0.08700
C2398       C  0.80035422  0.41859522  0.54183254     0.30100
F2399       F  0.78830470  0.40098828  0.55363354    -0.19300
H2400       H  0.77062291  0.42559785  0.51817062     0.18500
H2401       H  0.85465373  0.44761084  0.54111454     0.18500
F2402       F  0.83738123  0.47308246  0.50665963    -0.19300
C2403       C  0.80330840  0.54631612  0.42307269    -0.20700
C2404       C  0.82856003  0.54781576  0.42474475    -0.08700
C2405       C  0.84116096  0.53022947  0.43763829     0.30100
C2406       C  0.82862845  0.51153411  0.44876741    -0.20700
C2407       C  0.80333715  0.50987324  0.44702258    -0.08700
C2408       C  0.79074850  0.52747803  0.43402044     0.30100
F2409       F  0.76631533  0.52681010  0.43231585    -0.19300
H2410       H  0.79335787  0.55973865  0.41314622     0.18500
H2411       H  0.83878522  0.49812983  0.45850690     0.18500
F2412       F  0.86559244  0.53114172  0.43937898    -0.19300
C2413       C  0.70474798  0.41993023  0.44666765    -0.20700
C2414       C  0.69800409  0.42744144  0.42358611    -0.08700
C2415       C  0.70974485  0.44728076  0.41342602     0.30100
C2416       C  0.72864670  0.45886184  0.42580645    -0.20700
C2417       C  0.73636702  0.45077990  0.44853629    -0.08700
C2418       C  0.72372069  0.43145160  0.45913067     0.30100
F2419       F  0.72992113  0.42322959  0.48123320    -0.19300
H2420       H  0.69579905  0.40460234  0.45467576     0.18500
H2421       H  0.73774524  0.47370784  0.41712875     0.18500
F2422       F  0.70343954  0.45489703  0.39112808    -0.19300
C2423       C  0.83260095  0.24480245  0.29555046    -0.20700
C2424       C  0.81300169  0.25647951  0.30672007    -0.08700
C2425       C  0.80491517  0.24740529  0.32900438     0.30100
C2426       C  0.81628714  0.22767725  0.33971051    -0.20700
C2427       C  0.83586196  0.21633319  0.32860868    -0.08700
C2428       C  0.84388627  0.22496020  0.30632989     0.30100
F2429       F  0.86289829  0.21441130  0.29521516    -0.19300
H2430       H  0.83937225  0.25111082  0.27848679     0.18500
H2431       H  0.80994004  0.22133985  0.35693717     0.18500
F2432       F  0.78620061  0.25768554  0.34082816    -0.19300
C2433       C  0.71823080  0.35042758  0.30976057    -0.20700
C2434       C  0.70981283  0.34150069  0.33172332    -0.08700
C2435       C  0.72179679  0.32182798  0.34202895     0.30100
C2436       C  0.74171145  0.31134700  0.33053890    -0.20700
C2437       C  0.75019823  0.32010967  0.30839503    -0.08700
C2438       C  0.73807254  0.33992710  0.29815347     0.30100
F2439       F  0.74520298  0.34928345  0.27687929    -0.19300
H2440       H  0.70935636  0.36565129  0.30157348     0.18500
H2441       H  0.75052409  0.29632496  0.33912320     0.18500
F2442       F  0.71439507  0.31293837  0.36342987    -0.19300
C2443       C  0.82800214  0.30704186  0.22879228    -0.20700
C2444       C  0.81089796  0.31928235  0.24303836    -0.08700
C2445       C  0.80464961  0.34302847  0.23651510     0.30100
C2446       C  0.81597565  0.35437464  0.21720946    -0.20700
C2447       C  0.83347483  0.34240150  0.20359814    -0.08700
C2448       C  0.83906671  0.31840473  0.20916842     0.30100
F2449       F  0.85569710  0.30623550  0.19604220    -0.19300
H2450       H  0.83304581  0.28873217  0.23299117     0.18500
H2451       H  0.81143017  0.37285589  0.21313562     0.18500
F2452       F  0.78819792  0.35582898  0.24922354    -0.19300
C2453       C  0.05081148  0.33585167  0.64474661    -0.20700
C2454       C  0.07377306  0.34449690  0.65116503    -0.08700
C2455       C  0.08667944  0.33340317  0.66973421     0.30100
C2456       C  0.07665549  0.31387410  0.68182110    -0.20700
C2457       C  0.05357872  0.30503262  0.67554044    -0.08700
C2458       C  0.04076943  0.31621215  0.65667010     0.30100
F2459       F  0.01835140  0.30860122  0.64997953    -0.19300
H2460       H  0.04086104  0.34412864  0.63019705     0.18500
H2461       H  0.08680999  0.30601103  0.69645599     0.18500
F2462       F  0.10901131  0.34150836  0.67611329    -0.19300
C2463       C  0.98905910  0.55754014  0.65796264    -0.20700
C2464       C  0.99757343  0.56796198  0.67974830    -0.08700
C2465       C  0.98503115  0.58788168  0.68942624     0.30100
C2466       C  0.96530930  0.59759419  0.67700309    -0.20700
C2467       C  0.95756133  0.58759400  0.65491901    -0.08700
C2468       C  0.96926362  0.56715938  0.64573404     0.30100
F2469       F  0.96199153  0.55698796  0.62451571    -0.19300
H2470       H  0.99799819  0.54211856  0.64999729     0.18500
H2471       H  0.95627177  0.61324251  0.68441195     0.18500
F2472       F  0.99186015  0.59822435  0.71069201    -0.19300
C2473       C  0.06043085  0.47258910  0.65402116    -0.20700
C2474       C  0.08549539  0.46978933  0.65554054    -0.08700
C2475       C  0.09916907  0.48597885  0.66980095     0.30100
C2476       C  0.08783107  0.50500877  0.68197025    -0.20700
C2477       C  0.06274031  0.50825289  0.67992102    -0.08700
C2478       C  0.04909511  0.49157636  0.66605644     0.30100
F2479       F  0.02474653  0.49343536  0.66425124    -0.19300
H2480       H  0.04965938  0.46011601  0.64322606     0.18500
H2481       H  0.09876163  0.51754766  0.69251266     0.18500
F2482       F  0.12344310  0.48346492  0.67174655    -0.19300
C2483       C  0.06904417  0.60710338  0.76849344    -0.20700
C2484       C  0.08390645  0.59359725  0.78371846    -0.08700
C2485       C  0.08789365  0.56918767  0.77830144     0.30100
C2486       C  0.07697133  0.55847303  0.75797574    -0.20700
C2487       C  0.06188275  0.57190695  0.74270627    -0.08700
C2488       C  0.05809951  0.59645573  0.74818852     0.30100
F2489       F  0.04460330  0.61045014  0.73350090    -0.19300
H2490       H  0.06625809  0.62610301  0.77218886     0.18500
H2491       H  0.08034251  0.53960015  0.75418396     0.18500
F2492       F  0.10278659  0.55593322  0.79233471    -0.19300
C2493       C  0.26212056  0.59070803  0.54296582    -0.20700
C2494       C  0.25469937  0.56693582  0.54781294    -0.08700
C2495       C  0.26695696  0.55417561  0.56604992     0.30100
C2496       C  0.28582043  0.56508259  0.57905544    -0.20700
C2497       C  0.29280196  0.58882194  0.57434022    -0.08700
C2498       C  0.28092045  0.60160674  0.55618510     0.30100
F2499       F  0.28740213  0.62469384  0.55144493    -0.19300
H2500       H  0.25311221  0.60107485  0.52921152     0.18500
H2501       H  0.29483941  0.55510189  0.59310859     0.18500
F2502       F  0.26082548  0.53117028  0.57151844    -0.19300
C2503       C  0.17592453  0.48961485  0.52750968    -0.20700
C2504       C  0.19287771  0.50305890  0.54121105    -0.08700
C2505       C  0.19781399  0.49587717  0.56505863     0.30100
C2506       C  0.18544758  0.47645568  0.57504136    -0.20700
C2507       C  0.16802535  0.46367582  0.56162603    -0.08700
C2508       C  0.16363473  0.47002745  0.53758667     0.30100
F2509       F  0.14678007  0.45793442  0.52424155    -0.19300
H2510       H  0.17182789  0.49453261  0.50912151     0.18500
H2511       H  0.18887623  0.47182949  0.59365144     0.18500
F2512       F  0.21368213  0.50825430  0.57931725    -0.19300
C2513       C  0.28838705  0.67117589  0.68984220    -0.20700
C2514       C  0.29435443  0.67523842  0.66576939    -0.08700
C2515       C  0.28138551  0.69229710  0.65255184     0.30100
C2516       C  0.26269250  0.70517763  0.66339480    -0.20700
C2517       C  0.25632247  0.70093950  0.68748465    -0.08700
C2518       C  0.26946637  0.68373785  0.70063778     0.30100
F2519       F  0.26407047  0.67888320  0.72389172    -0.19300
H2520       H  0.29811637  0.65785105  0.70011304     0.18500
H2521       H  0.25282832  0.71805308  0.65269835     0.18500
F2522       F  0.28657636  0.69614886  0.62904636    -0.19300
C2523       C  0.20579862  0.69431300  0.76691196    -0.20700
C2524       C  0.19271469  0.70600224  0.74876954    -0.08700
C2525       C  0.16742002  0.70732858  0.75045382     0.30100
C2526       C  0.15553625  0.69696066  0.76983982    -0.20700
C2527       C  0.16857548  0.68507250  0.78778844    -0.08700
C2528       C  0.19383143  0.68395303  0.78636441     0.30100
F2529       F  0.20676087  0.67223470  0.80338996    -0.19300
H2530       H  0.22526444  0.69309627  0.76594191     0.18500
H2531       H  0.13601971  0.69756829  0.77054783     0.18500
F2532       F  0.15404122  0.71754351  0.73276907    -0.19300
C2533       C  0.17628749  0.77786245  0.69631545    -0.20700
C2534       C  0.19546469  0.76583520  0.68489123    -0.08700
C2535       C  0.20291025  0.77366262  0.66201080     0.30100
C2536       C  0.19106411  0.79274028  0.65084830    -0.20700
C2537       C  0.17150219  0.80398221  0.66208491    -0.08700
C2538       C  0.16433021  0.79663655  0.68499044     0.30100
F2539       F  0.14557064  0.80750571  0.69625753    -0.19300
H2540       H  0.17017488  0.77253340  0.71396117     0.18500
H2541       H  0.19675252  0.79843142  0.63316604     0.18500
F2542       F  0.22111162  0.76260746  0.65007365    -0.19300
C2543       C  0.16140561  0.57270432  0.45196599    -0.20700
C2544       C  0.16824133  0.59646362  0.44691531    -0.08700
C2545       C  0.18756396  0.60702836  0.45973568     0.30100
C2546       C  0.19951780  0.59408801  0.47773939    -0.20700
C2547       C  0.19234982  0.57037394  0.48337182    -0.08700
C2548       C  0.17325285  0.55972454  0.46992708     0.30100
F2549       F  0.16588021  0.53676784  0.47401689    -0.19300
H2550       H  0.14669638  0.56424035  0.44200038     0.18500
H2551       H  0.21416830  0.60284071  0.48752065     0.18500
F2552       F  0.19482618  0.62984482  0.45480737    -0.19300
C2553       C  0.07895692  0.71654054  0.47718760    -0.20700
C2554       C  0.05583417  0.70862726  0.48414841    -0.08700
C2555       C  0.04451688  0.69009716  0.47042073     0.30100
C2556       C  0.05646216  0.67923152  0.45107324    -0.20700
C2557       C  0.07983991  0.68647990  0.44493776    -0.08700
C2558       C  0.09087955  0.70555613  0.45779206     0.30100
F2559       F  0.11337209  0.71316376  0.45188566    -0.19300
H2560       H  0.08815744  0.73080509  0.48715524     0.18500
H2561       H  0.04771330  0.66459541  0.44122165     0.18500
F2562       F  0.02203643  0.68208322  0.47578713    -0.19300
C2563       C  0.95908840  0.67623624  0.54387625    -0.20700
C2564       C  0.95584821  0.67725720  0.56888548    -0.08700
C2565       C  0.97137943  0.69172287  0.58306872     0.30100
C2566       C  0.99009365  0.70471165  0.57237426    -0.20700
C2567       C  0.99382247  0.70331615  0.54735648    -0.08700
C2568       C  0.97789732  0.68910418  0.53314112     0.30100
F2569       F  0.98025710  0.68785626  0.50885117    -0.19300
H2570       H  0.94716293  0.66522745  0.53271857     0.18500
H2571       H  0.00201792  0.71545391  0.58378513     0.18500
F2572       F  0.96850809  0.69308135  0.60730747    -0.19300
C2573       C  0.08233314  0.80278371  0.55336781    -0.20700
C2574       C  0.07772362  0.80588382  0.57800144    -0.08700
C2575       C  0.06137704  0.79038727  0.58931164     0.30100
C2576       C  0.05010748  0.77175550  0.57619744    -0.20700
C2577       C  0.05515132  0.76803282  0.55160078    -0.08700
C2578       C  0.07121707  0.78403407  0.54021260     0.30100
F2579       F  0.07620850  0.78167466  0.51640883    -0.19300
H2580       H  0.09491342  0.81467912  0.54445119     0.18500
H2581       H  0.03787112  0.75984036  0.58552906     0.18500
F2582       F  0.05670078  0.79304031  0.61315847    -0.19300
C2583       C  0.92266723  0.17055069  0.67593332    -0.20700
C2584       C  0.91044386  0.18384701  0.65843957    -0.08700
C2585       C  0.91978424  0.20609613  0.65118971     0.30100
C2586       C  0.94107718  0.21503049  0.66160130    -0.20700
C2587       C  0.95328796  0.20199621  0.67955744    -0.08700
C2588       C  0.94382921  0.17952567  0.68657177     0.30100
F2589       F  0.95477125  0.16631911  0.70387096    -0.19300
H2590       H  0.91585105  0.15304163  0.68116872     0.18500
H2591       H  0.94757311  0.23255899  0.65608266     0.18500
F2592       F  0.90852599  0.21890577  0.63377904    -0.19300
C2593       C  0.65456942  0.27109462  0.68877463    -0.20700
C2594       C  0.67908762  0.26674775  0.68416762    -0.08700
C2595       C  0.69175680  0.28278730  0.66917943     0.30100
C2596       C  0.67988359  0.30239706  0.65886934    -0.20700
C2597       C  0.65529048  0.30615625  0.66315320    -0.08700
C2598       C  0.64275565  0.29046886  0.67827824     0.30100
F2599       F  0.61882830  0.29351912  0.68225471    -0.19300
H2600       H  0.64423195  0.25907482  0.70001097     0.18500
H2601       H  0.68966435  0.31426883  0.64698939     0.18500
F2602       F  0.71548784  0.27955595  0.66434214    -0.19300
C2603       C  0.64383866  0.19533455  0.77025514    -0.20700
C2604       C  0.65628840  0.17727458  0.78252015    -0.08700
C2605       C  0.67951897  0.17091131  0.77496011     0.30100
C2606       C  0.69015820  0.18254719  0.75543402    -0.20700
C2607       C  0.67791427  0.20091534  0.74313772    -0.08700
C2608       C  0.65446299  0.20712899  0.75079485     0.30100
F2609       F  0.64161254  0.22445152  0.73948830    -0.19300
H2610       H  0.62589588  0.20041436  0.77592110     0.18500
H2611       H  0.70814928  0.17728638  0.75012024     0.18500
F2612       F  0.69190988  0.15345066  0.78654703    -0.19300
C2613       C  0.77712064  0.20721421  0.65530672    -0.20700
C2614       C  0.78358986  0.18361800  0.66108874    -0.08700
C2615       C  0.77028591  0.17103187  0.67829410     0.30100
C2616       C  0.75047112  0.18182159  0.68933904    -0.20700
C2617       C  0.74337942  0.20531583  0.68325211    -0.08700
C2618       C  0.75716908  0.21804460  0.66619889     0.30100
F2619       F  0.75139549  0.24083039  0.65980509    -0.19300
H2620       H  0.78720100  0.21699794  0.64188698     0.18500
H2621       H  0.74034617  0.17147037  0.70228011     0.18500
F2622       F  0.77620594  0.14807766  0.68399345    -0.19300
C2623       C  0.47693972  0.19832143  0.58306890    -0.20700
C2624       C  0.48025863  0.19452674  0.55819589    -0.08700
C2625       C  0.46497005  0.17802265  0.54589192     0.30100
C2626       C  0.44695986  0.16562159  0.55831047    -0.20700
C2627       C  0.44390773  0.16937885  0.58310520    -0.08700
C2628       C  0.45900667  0.18580787  0.59544503     0.30100
F2629       F  0.45621606  0.18988641  0.61941880    -0.19300
H2630       H  0.48841469  0.21081972  0.59306373     0.18500
H2631       H  0.43528281  0.15309131  0.54858855     0.18500
F2632       F  0.46701375  0.17419956  0.52180649    -0.19300
C2633       C  0.52716364  0.17878218  0.48044528    -0.20700
C2634       C  0.53859683  0.19877293  0.49169017    -0.08700
C2635       C  0.56113781  0.20648168  0.48277121     0.30100
C2636       C  0.57216084  0.19388009  0.46383225    -0.20700
C2637       C  0.56094765  0.17358331  0.45331493    -0.08700
C2638       C  0.53820489  0.16630577  0.46149235     0.30100
F2639       F  0.52710475  0.14658979  0.45169269    -0.19300
H2640       H  0.50982598  0.17237156  0.48666287     0.18500
H2641       H  0.58977800  0.19960550  0.45770349     0.18500
F2642       F  0.57306181  0.22557039  0.49283242    -0.19300
C2643       C  0.56090530  0.29941963  0.55456661    -0.20700
C2644       C  0.56155991  0.30095879  0.57983381    -0.08700
C2645       C  0.55008166  0.28297629  0.59326184     0.30100
C2646       C  0.53875914  0.26346071  0.58157051    -0.20700
C2647       C  0.53877823  0.26140755  0.55628302    -0.08700
C2648       C  0.54961752  0.27984961  0.54283293     0.30100
F2649       F  0.54905507  0.27914807  0.51839444    -0.19300
H2650       H  0.56952490  0.31323683  0.54394817     0.18500
H2651       H  0.53046655  0.24959925  0.59238286     0.18500
F2652       F  0.55012664  0.28415993  0.61769851    -0.19300
C2653       C  0.64932026  0.06187352  0.46215097    -0.20700
C2654       C  0.65120469  0.08671825  0.45821468    -0.08700
C2655       C  0.66668123  0.10079465  0.47281960     0.30100
C2656       C  0.67965828  0.09020570  0.49153931    -0.20700
C2657       C  0.67729203  0.06543187  0.49602666    -0.08700
C2658       C  0.66223050  0.05123991  0.48087562     0.30100
F2659       F  0.66008751  0.02707791  0.48399955    -0.19300
H2660       H  0.63769384  0.05077510  0.45076247     0.18500
H2661       H  0.69108802  0.10152135  0.50290282     0.18500
F2662       F  0.66909436  0.12480133  0.46898898    -0.19300
C2663       C  0.65591425  0.99576819  0.54997950    -0.20700
C2664       C  0.67811765  0.00452066  0.55912443    -0.08700
C2665       C  0.68855719  0.99309014  0.57919198     0.30100
C2666       C  0.67667750  0.97381330  0.59000989    -0.20700
C2667       C  0.65447507  0.96549621  0.58092716    -0.08700
C2668       C  0.64423316  0.97638935  0.56070740     0.30100
F2669       F  0.62270916  0.96855157  0.55168144    -0.19300
H2670       H  0.64734158  0.00404741  0.53460323     0.18500
H2671       H  0.68471486  0.96538247  0.60560087     0.18500
F2672       F  0.71014030  0.00040982  0.58846677    -0.19300
C2673       C  0.76754197  0.07601508  0.59254798    -0.20700
C2674       C  0.78242806  0.09040816  0.57831023    -0.08700
C2675       C  0.77711160  0.09304063  0.55376352     0.30100
C2676       C  0.75678726  0.08164903  0.54369760    -0.20700
C2677       C  0.74159206  0.06735348  0.55794876    -0.08700
C2678       C  0.74731378  0.06449042  0.58253576     0.30100
F2679       F  0.73289112  0.05143578  0.59719816    -0.19300
H2680       H  0.77132274  0.07421596  0.61161135     0.18500
H2681       H  0.75287952  0.08411093  0.52475103     0.18500
F2682       F  0.79114458  0.10723288  0.53978803    -0.19300
C2683       C  0.45206309  0.09342804  0.69414044    -0.20700
C2684       C  0.44277607  0.08324407  0.67278870    -0.08700
C2685       C  0.45235420  0.06155442  0.66399161     0.30100
C2686       C  0.47164566  0.05071822  0.67596622    -0.20700
C2687       C  0.48157869  0.06115861  0.69712103    -0.08700
C2688       C  0.47117826  0.08251973  0.70633408     0.30100
F2689       F  0.47959002  0.09321043  0.72686621    -0.19300
H2690       H  0.44466476  0.11009651  0.70117276     0.18500
H2691       H  0.47898726  0.03426578  0.66841021     0.18500
F2692       F  0.44344380  0.05125694  0.64345515    -0.19300
C2693       C  0.57597097  0.06436300  0.79175318    -0.20700
C2694       C  0.56902056  0.08782795  0.79808489    -0.08700
C2695       C  0.54929880  0.09823193  0.78626885     0.30100
C2696       C  0.53729676  0.08563710  0.76771349    -0.20700
C2697       C  0.54485290  0.06246343  0.76041611    -0.08700
C2698       C  0.56407117  0.05172871  0.77312670     0.30100
F2699       F  0.57176877  0.02923642  0.76737775    -0.19300
H2700       H  0.59123537  0.05617838  0.80069946     0.18500
H2701       H  0.52255213  0.09445366  0.75854058     0.18500
F2702       F  0.54221780  0.12092324  0.79214130    -0.19300
C2703       C  0.57768422  0.97015770  0.69237976    -0.20700
C2704       C  0.56770754  0.96120748  0.67078301    -0.08700
C2705       C  0.54598984  0.97082652  0.66222676     0.30100
C2706       C  0.53474144  0.98956242  0.67485170    -0.20700
C2707       C  0.54492136  0.99914147  0.69629835    -0.08700
C2708       C  0.56645160  0.98887336  0.70511936     0.30100
F2709       F  0.57702385  0.99709133  0.72576277    -0.19300
H2710       H  0.59446946  0.96287825  0.69914164     0.18500
H2711       H  0.51822470  0.99684846  0.66748838     0.18500
F2712       F  0.53606990  0.96253812  0.64126532    -0.19300
C2713       C  0.06462268  0.09477397  0.42917941    -0.20700
C2714       C  0.07603644  0.07947502  0.41254009    -0.08700
C2715       C  0.07814042  0.05490145  0.41751713     0.30100
C2716       C  0.06857585  0.04569929  0.43874411    -0.20700
C2717       C  0.05655607  0.06082387  0.45530048    -0.08700
C2718       C  0.05480076  0.08557627  0.45033437     0.30100
F2719       F  0.04356212  0.10086140  0.46581203    -0.19300
H2720       H  0.06352978  0.11393242  0.42579993     0.18500
H2721       H  0.06991090  0.02650356  0.44180205     0.18500
F2722       F  0.08973121  0.03993455  0.40198778    -0.19300
C2723       C  0.94321101  0.06458049  0.58095303    -0.20700
C2724       C  0.94877777  0.06924497  0.55676894    -0.08700
C2725       C  0.93380028  0.08477516  0.54351284     0.30100
C2726       C  0.91379889  0.09533340  0.55431586    -0.20700
C2727       C  0.90843831  0.09068310  0.57838466    -0.08700
C2728       C  0.92326538  0.07535429  0.59176718     0.30100
F2729       F  0.91842777  0.07087656  0.61523314    -0.19300
H2730       H  0.95413941  0.05235342  0.59140029     0.18500
H2731       H  0.90257642  0.10741746  0.54400441     0.18500
F2732       F  0.93775693  0.08895486  0.51982343    -0.19300
C2733       C  0.07491029  0.96183947  0.55555413    -0.20700
C2734       C  0.05379390  0.97119787  0.56590262    -0.08700
C2735       C  0.04481552  0.96073325  0.58712714     0.30100
C2736       C  0.05657104  0.94108435  0.59728703    -0.20700
C2737       C  0.07701303  0.93141955  0.58623329    -0.08700
C2738       C  0.08618720  0.94190623  0.56538230     0.30100
F2739       F  0.10626860  0.93294645  0.55475519    -0.19300
H2740       H  0.08210500  0.96913393  0.53906600     0.18500
H2741       H  0.04966881  0.93325122  0.61365912     0.18500
F2742       F  0.02431046  0.96885311  0.59761408    -0.19300
C2743       C  0.92039508  0.04666843  0.43579960    -0.20700
C2744       C  0.94566910  0.04766163  0.43678754    -0.08700
C2745       C  0.95783128  0.06622046  0.42459834     0.30100
C2746       C  0.94497092  0.08424308  0.41298170    -0.20700
C2747       C  0.91973270  0.08431434  0.41340692    -0.08700
C2748       C  0.90744438  0.06487046  0.42411981     0.30100
F2749       F  0.88296682  0.06410268  0.42419935    -0.19300
H2750       H  0.91069890  0.03285080  0.44546947     0.18500
H2751       H  0.95473200  0.09865481  0.40425862     0.18500
F2752       F  0.98229684  0.06774407  0.42528242    -0.19300
C2753       C  0.78788521  0.43074746  0.69078638    -0.20700
C2754       C  0.79869142  0.44769069  0.70649562    -0.08700
C2755       C  0.82380483  0.45102949  0.70626956     0.30100
C2756       C  0.83772323  0.43840719  0.68944932    -0.20700
C2757       C  0.82654211  0.42269552  0.67273118    -0.08700
C2758       C  0.80168709  0.41830191  0.67400180     0.30100
F2759       F  0.79068179  0.40286493  0.65819132    -0.19300
H2760       H  0.76845349  0.42841724  0.69043435     0.18500
H2761       H  0.85697706  0.44172567  0.68863833     0.18500
F2762       F  0.83444113  0.46808719  0.72058871    -0.19300
C2763       C  0.65668930  0.46879427  0.68248610    -0.20700
C2764       C  0.68068880  0.47295796  0.67537662    -0.08700
C2765       C  0.69099225  0.45731458  0.65808353     0.30100
C2766       C  0.67828965  0.43706322  0.64975452    -0.20700
C2767       C  0.65492989  0.43236015  0.65785820    -0.08700
C2768       C  0.64380679  0.44877858  0.67360852     0.30100
F2769       F  0.62064133  0.44524227  0.68059416    -0.19300
H2770       H  0.64818039  0.48047468  0.69564258     0.18500
H2771       H  0.68659538  0.42506667  0.63673941     0.18500
F2772       F  0.71371283  0.46091980  0.64985105    -0.19300
C2773       C  0.79631960  0.58782424  0.67698530    -0.20700
C2774       C  0.79009582  0.56356633  0.67237574    -0.08700
C2775       C  0.80405952  0.55012115  0.65585620     0.30100
C2776       C  0.82430405  0.56050480  0.64518858    -0.20700
C2777       C  0.83076025  0.58439601  0.65052883    -0.08700
C2778       C  0.81636319  0.59821115  0.66603113     0.30100
F2779       F  0.82181405  0.62173305  0.67060778    -0.19300
H2780       H  0.78602846  0.59864265  0.68956445     0.18500
H2781       H  0.83489626  0.54998700  0.63260346     0.18500
F2782       F  0.79878297  0.52670778  0.65059332    -0.19300
C2783       C  0.65709752  0.58266505  0.80653654    -0.20700
C2784       C  0.67059602  0.59960683  0.81987230    -0.08700
C2785       C  0.69405585  0.60556206  0.81272163     0.30100
C2786       C  0.70409206  0.59411049  0.79263375    -0.20700
C2787       C  0.69088276  0.57644326  0.77959858    -0.08700
C2788       C  0.66708514  0.57107335  0.78662054     0.30100
F2789       F  0.65360399  0.55421229  0.77466098    -0.19300
H2790       H  0.63879201  0.57831345  0.81174639     0.18500
H2791       H  0.72254884  0.59836749  0.78791354     0.18500
F2792       F  0.70720711  0.62225668  0.82526882    -0.19300
C2793       C  0.48552951  0.58112173  0.19133763    -0.20700
C2794       C  0.48874011  0.55659886  0.18535124    -0.08700
C2795       C  0.47312106  0.54568436  0.16826001     0.30100
C2796       C  0.45474225  0.55910439  0.15756339    -0.20700
C2797       C  0.45182018  0.58354373  0.16353475    -0.08700
C2798       C  0.46733522  0.59451857  0.18045170     0.30100
F2799       F  0.46486464  0.61818304  0.18638742    -0.19300
H2800       H  0.49733013  0.59010705  0.20427950     0.18500
H2801       H  0.44282688  0.55050547  0.14446245     0.18500
F2802       F  0.47528277  0.52204191  0.16214969    -0.19300
C2803       C  0.54953487  0.46038611  0.15266684    -0.20700
C2804       C  0.57233129  0.45295482  0.16050149    -0.08700
C2805       C  0.58263373  0.46350731  0.18124404     0.30100
C2806       C  0.57063928  0.48197452  0.19345724    -0.20700
C2807       C  0.54810846  0.49025534  0.18522237    -0.08700
C2808       C  0.53741091  0.47881855  0.16490067     0.30100
F2809       F  0.51546850  0.48560572  0.15651060    -0.19300
H2810       H  0.54143490  0.45229988  0.13667162     0.18500
H2811       H  0.57942853  0.49026762  0.20896752     0.18500
F2812       F  0.60481246  0.45665399  0.18898811    -0.19300
C2813       C  0.47718933  0.67633011  0.04185146    -0.20700
C2814       C  0.48957319  0.69565344  0.05316161    -0.08700
C2815       C  0.48166877  0.70363051  0.07608223     0.30100
C2816       C  0.46241160  0.69210080  0.08741723    -0.20700
C2817       C  0.45049859  0.67265473  0.07619173    -0.08700
C2818       C  0.45776625  0.66499414  0.05320569     0.30100
F2819       F  0.44643709  0.64612932  0.04207742    -0.19300
H2820       H  0.48262114  0.66984109  0.02424897     0.18500
H2821       H  0.45701316  0.69807703  0.10522056     0.18500
F2822       F  0.49285144  0.72211488  0.08800269    -0.19300
C2823       C  0.58278336  0.78974446  0.05729292    -0.20700
C2824       C  0.56922369  0.80243908  0.07440893    -0.08700
C2825       C  0.54563927  0.79488747  0.07939886     0.30100
C2826       C  0.53593421  0.77453268  0.06774147    -0.20700
C2827       C  0.54961929  0.76127713  0.05095063    -0.08700
C2828       C  0.57314908  0.76935077  0.04558580     0.30100
F2829       F  0.58734916  0.75698059  0.02998857    -0.19300
H2830       H  0.60120761  0.79516371  0.05368484     0.18500
H2831       H  0.51782072  0.76886201  0.07230244     0.18500
F2832       F  0.53251023  0.80648142  0.09646699    -0.19300
C2833       C  0.56980254  0.70914807  0.97679881    -0.20700
C2834       C  0.55315510  0.69558287  0.99022807    -0.08700
C2835       C  0.54899473  0.67127741  0.98347276     0.30100
C2836       C  0.56139164  0.66097910  0.96398456    -0.20700
C2837       C  0.57801055  0.67464319  0.95083397    -0.08700
C2838       C  0.58208099  0.69883352  0.95734870     0.30100
F2839       F  0.59832402  0.71233028  0.94514752    -0.19300
H2840       H  0.57348344  0.72784630  0.98139580     0.18500
H2841       H  0.55824569  0.64220758  0.95927261     0.18500
F2842       F  0.53353132  0.65720702  0.99601793    -0.19300
C2843       C  0.69541532  0.48997653  0.06737227    -0.20700
C2844       C  0.68426815  0.50238964  0.04834391    -0.08700
C2845       C  0.66061722  0.49556972  0.04137374     0.30100
C2846       C  0.64877223  0.47663236  0.05295457    -0.20700
C2847       C  0.66018326  0.46423176  0.07162327    -0.08700
C2848       C  0.68351326  0.47112030  0.07890921     0.30100
F2849       F  0.69470529  0.45962791  0.09727377    -0.19300
H2850       H  0.71347086  0.49477813  0.07335497     0.18500
H2851       H  0.63066346  0.47156604  0.04734562     0.18500
F2852       F  0.64868531  0.50734747  0.02370130    -0.19300
C2853       C  0.78313700  0.59126391  0.05338264    -0.20700
C2854       C  0.78579793  0.58674374  0.07804676    -0.08700
C2855       C  0.77071412  0.56977253  0.08896152     0.30100
C2856       C  0.75300271  0.55767764  0.07539240    -0.20700
C2857       C  0.74972964  0.56255096  0.05073848    -0.08700
C2858       C  0.76523821  0.57936632  0.03977814     0.30100
F2859       F  0.76312765  0.58444751  0.01601161    -0.19300
H2860       H  0.79472112  0.60434844  0.04478605     0.18500
H2861       H  0.74138148  0.54496399  0.08445358     0.18500
F2862       F  0.77290411  0.56520682  0.11283817    -0.19300
C2863       C  0.65558245  0.57569151  0.96045810    -0.20700
C2864       C  0.67021221  0.59020754  0.94600023    -0.08700
C2865       C  0.69530366  0.59044862  0.95004491     0.30100
C2866       C  0.70528275  0.57713409  0.96895146    -0.20700
C2867       C  0.69046825  0.56323398  0.98401072    -0.08700
C2868       C  0.66547896  0.56234987  0.97922219     0.30100
F2869       F  0.65029997  0.54964729  0.99340797    -0.19300
H2870       H  0.63623729  0.57520949  0.95754362     0.18500
H2871       H  0.72458337  0.57800552  0.97206214     0.18500
F2872       F  0.71003613  0.60399497  0.93613625    -0.19300
C2873       C  0.58052226  0.55491723  0.28036545    -0.20700
C2874       C  0.57022357  0.57598680  0.28978301    -0.08700
C2875       C  0.54834384  0.58424261  0.28036699     0.30100
C2876       C  0.53729390  0.57203981  0.26115026    -0.20700
C2877       C  0.54789119  0.55136366  0.25084697    -0.08700
C2878       C  0.56945517  0.54256138  0.26107099     0.30100
F2879       F  0.58029888  0.52254935  0.25208811    -0.19300
H2880       H  0.59743002  0.54841054  0.28761378     0.18500
H2881       H  0.52067380  0.57927106  0.25396500     0.18500
F2882       F  0.53818815  0.60468960  0.28921317    -0.19300
C2883       C  0.68252816  0.67324464  0.25724444    -0.20700
C2884       C  0.67337655  0.69515662  0.24857153    -0.08700
C2885       C  0.65322637  0.70541570  0.26018988     0.30100
C2886       C  0.64266704  0.69385474  0.27982181    -0.20700
C2887       C  0.65186330  0.67195301  0.28809347    -0.08700
C2888       C  0.67185983  0.66173167  0.27670799     0.30100
F2889       F  0.68078848  0.64035351  0.28421401    -0.19300
H2890       H  0.69787468  0.66472454  0.24881394     0.18500
H2891       H  0.62700085  0.70173103  0.28832507     0.18500
F2892       F  0.64350848  0.72641185  0.25259497    -0.19300
C2893       C  0.75116800  0.70765317  0.17023273    -0.20700
C2894       C  0.73828050  0.69564290  0.18833390    -0.08700
C2895       C  0.74674552  0.67307804  0.19623057     0.30100
C2896       C  0.76732499  0.66287391  0.18600841    -0.20700
C2897       C  0.77984958  0.67486837  0.16787605    -0.08700
C2898       C  0.77176400  0.69738272  0.16010222     0.30100
F2899       F  0.78338683  0.70901746  0.14217069    -0.19300
H2900       H  0.74522674  0.72496014  0.16370226     0.18500
H2901       H  0.77324747  0.64530436  0.19186553     0.18500
F2902       F  0.73493670  0.66047137  0.21336817    -0.19300
C2903       C  0.68345315  0.76566047  0.16378929    -0.20700
C2904       C  0.67652183  0.75921013  0.18721899    -0.08700
C2905       C  0.65953737  0.77363550  0.19942567     0.30100
C2906       C  0.64926758  0.79346495  0.18806727    -0.20700
C2907       C  0.65573813  0.79923292  0.16450036    -0.08700
C2908       C  0.67309896  0.78546587  0.15249002     0.30100
F2909       F  0.67965525  0.79099481  0.12969084    -0.19300
H2910       H  0.69651091  0.75505712  0.15393147     0.18500
H2911       H  0.63589334  0.80410176  0.19746909     0.18500
F2912       F  0.65282789  0.76872212  0.22230742    -0.19300
C2913       C  0.03886534  0.31892153  0.82015107    -0.20700
C2914       C  0.03991541  0.32113495  0.79505048    -0.08700
C2915       C  0.05688356  0.33706783  0.78500610     0.30100
C2916       C  0.07333977  0.34952492  0.79976437    -0.20700
C2917       C  0.07339764  0.34601996  0.82469640    -0.08700
C2918       C  0.05558688  0.33120908  0.83493025     0.30100
F2919       F  0.05521079  0.32769773  0.85907204    -0.19300
H2920       H  0.02627500  0.30639109  0.82815964     0.18500
H2921       H  0.08664549  0.36126061  0.79169803     0.18500
F2922       F  0.05827291  0.33966117  0.76076452    -0.19300
C2923       C  0.66200890  0.42796905  0.79082838    -0.20700
C2924       C  0.66352110  0.42810225  0.81600665    -0.08700
C2925       C  0.68364812  0.43914778  0.82743005     0.30100
C2926       C  0.70112756  0.45106725  0.81382556    -0.20700
C2927       C  0.69850020  0.45244594  0.78878211    -0.08700
C2928       C  0.67916395  0.44020989  0.77731790     0.30100
F2929       F  0.67642739  0.44083062  0.75300590    -0.19300
H2930       H  0.64714641  0.41887179  0.78168207     0.18500
H2931       H  0.71579653  0.46049373  0.82294999     0.18500
F2932       F  0.68601806  0.43892595  0.85177951    -0.19300
C2933       C  0.29609726  0.52018572  0.91945627    -0.20700
C2934       C  0.30402890  0.51288022  0.94239300    -0.08700
C2935       C  0.32397319  0.52516889  0.95298245     0.30100
C2936       C  0.33542352  0.54407202  0.94091984    -0.20700
C2937       C  0.32740578  0.55115180  0.91811268    -0.08700
C2938       C  0.30768362  0.53904729  0.90741927     0.30100
F2939       F  0.29959751  0.54559370  0.88533590    -0.19300
H2940       H  0.28095670  0.51121018  0.91068541     0.18500
H2941       H  0.35061675  0.55326172  0.94939577     0.18500
F2942       F  0.33237637  0.51925781  0.97512508    -0.19300
C2943       C  0.22901893  0.43042782  0.95506002    -0.20700
C2944       C  0.23683769  0.45322248  0.94713982    -0.08700
C2945       C  0.22323804  0.46464873  0.92899552     0.30100
C2946       C  0.20317227  0.45301710  0.91844717    -0.20700
C2947       C  0.19617934  0.42988857  0.92573205    -0.08700
C2948       C  0.20899195  0.41884911  0.94444360     0.30100
F2949       F  0.20261312  0.39647586  0.95183173    -0.19300
H2950       H  0.23886382  0.42111352  0.96901210     0.18500
H2951       H  0.19349672  0.46174256  0.90398684     0.18500
F2952       F  0.22939840  0.48691685  0.92115170    -0.19300
C2953       C  0.29069690  0.43508139  0.02110082    -0.20700
C2954       C  0.30261249  0.45324692  0.00806126    -0.08700
C2955       C  0.32602380  0.46035788  0.01562783     0.30100
C2956       C  0.33718519  0.44925574  0.03518413    -0.20700
C2957       C  0.32545567  0.43090727  0.04771483    -0.08700
C2958       C  0.30199891  0.42398418  0.04072807     0.30100
F2959       F  0.29040980  0.40596161  0.05235733    -0.19300
H2960       H  0.27274058  0.42913480  0.01589207     0.18500
H2961       H  0.35540036  0.45455047  0.04021699     0.18500
F2962       F  0.33865656  0.47748639  0.00377830    -0.19300
C2963       C  0.50839588  0.43441531  0.79138288    -0.20700
C2964       C  0.49702125  0.45419900  0.80266807    -0.08700
C2965       C  0.50604677  0.46209459  0.82532767     0.30100
C2966       C  0.52557856  0.45035747  0.83625591    -0.20700
C2967       C  0.53669633  0.43064972  0.82491348    -0.08700
C2968       C  0.52796115  0.42279225  0.80233495     0.30100
F2969       F  0.53813419  0.40357598  0.79106994    -0.19300
H2970       H  0.50207597  0.42774255  0.77403516     0.18500
H2971       H  0.53197879  0.45655463  0.85375200     0.18500
F2972       F  0.49586260  0.48089401  0.83724886    -0.19300
C2973       C  0.41085611  0.52511448  0.79450815    -0.20700
C2974       C  0.43425172  0.51805493  0.80156262    -0.08700
C2975       C  0.44599157  0.53153172  0.82000207     0.30100
C2976       C  0.43443090  0.55100213  0.83127276    -0.20700
C2977       C  0.41089438  0.55742218  0.82469313    -0.08700
C2978       C  0.39922051  0.54443705  0.80605690     0.30100
F2979       F  0.37628979  0.55000092  0.79955449    -0.19300
H2980       H  0.40119795  0.51523043  0.78049321     0.18500
H2981       H  0.44358149  0.56064977  0.84578663     0.18500
F2982       F  0.46855682  0.52580840  0.82749393    -0.19300
C2983       C  0.43880125  0.42916708  0.73404268    -0.20700
C2984       C  0.43443693  0.45376794  0.73864838    -0.08700
C2985       C  0.41846016  0.46607321  0.72321377     0.30100
C2986       C  0.40701715  0.45385923  0.70398259    -0.20700
C2987       C  0.41095259  0.42918201  0.70002420    -0.08700
C2988       C  0.42698351  0.41693320  0.71516110     0.30100
F2989       F  0.43055461  0.39289944  0.71212340    -0.19300
H2990       H  0.45075761  0.41908320  0.74561535     0.18500
H2991       H  0.39447297  0.46346286  0.69260311     0.18500
F2992       F  0.41366212  0.48980694  0.72675491    -0.19300
C2993       C  0.51449365  0.34499547  0.94813045    -0.20700
C2994       C  0.50454390  0.32318597  0.93924018    -0.08700
C2995       C  0.51533190  0.31206133  0.91898330     0.30100
C2996       C  0.53486514  0.32301956  0.90759866    -0.20700
C2997       C  0.54399223  0.34516050  0.91602977    -0.08700
C2998       C  0.53398754  0.35593413  0.93659099     0.30100
F2999       F  0.54257697  0.37743995  0.94495950    -0.19300
H3000       H  0.50679238  0.35400745  0.96365045     0.18500
H3001       H  0.54238969  0.31464800  0.89162386     0.18500
F3002       F  0.50679192  0.29090825  0.90967522    -0.19300
C3003       C  0.42350438  0.31360999  0.01509777    -0.20700
C3004       C  0.44153213  0.32573949  0.00209462    -0.08700
C3005       C  0.44838569  0.34922040  0.00968889     0.30100
C3006       C  0.43691166  0.36035048  0.02923247    -0.20700
C3007       C  0.41869774  0.34829690  0.04176440    -0.08700
C3008       C  0.41227319  0.32471016  0.03479454     0.30100
F3009       F  0.39486377  0.31259626  0.04684294    -0.19300
H3010       H  0.41795758  0.29549826  0.00996833     0.18500
H3011       H  0.44207290  0.37854293  0.03450013     0.18500
F3012       F  0.46569648  0.36178092  0.99795174    -0.19300
C3013       C  0.45213210  0.24895374  0.92108171    -0.20700
C3014       C  0.43920142  0.26273352  0.93806569    -0.08700
C3015       C  0.41513384  0.25615557  0.94302143     0.30100
C3016       C  0.40447566  0.23629633  0.93123114    -0.20700
C3017       C  0.41755854  0.22264618  0.91444961    -0.08700
C3018       C  0.44144981  0.22911914  0.90939307     0.30100
F3019       F  0.45424759  0.21651184  0.89278235    -0.19300
H3020       H  0.47061283  0.25350614  0.91676082     0.18500
H3021       H  0.38587221  0.23166148  0.93497733     0.18500
F3022       F  0.40163925  0.26918408  0.95871548    -0.19300
C3023       C  0.29745517  0.25018619  0.83297536    -0.20700
C3024       C  0.29939794  0.25433809  0.80812968    -0.08700
C3025       C  0.31331232  0.23840064  0.79402392     0.30100
C3026       C  0.32587363  0.21953015  0.80483233    -0.20700
C3027       C  0.32476538  0.21616610  0.82979393    -0.08700
C3028       C  0.31010359  0.23137728  0.84374992     0.30100
F3029       F  0.30866885  0.22847174  0.86793662    -0.19300
H3030       H  0.28687883  0.26208540  0.84427582     0.18500
H3031       H  0.33702187  0.20788774  0.79382222     0.18500
F3032       F  0.31493939  0.24110103  0.76982184    -0.19300
C3033       C  0.32249555  0.30945722  0.73876844    -0.20700
C3034       C  0.29997262  0.31786569  0.74686292    -0.08700
C3035       C  0.28908260  0.33709141  0.73447827     0.30100
C3036       C  0.30072051  0.34775450  0.71493659    -0.20700
C3037       C  0.32329799  0.33949456  0.70732655    -0.08700
C3038       C  0.33402464  0.32012638  0.71921798     0.30100
F3039       F  0.35572017  0.31162353  0.71192223    -0.19300
H3040       H  0.33142107  0.29471367  0.74771958     0.18500
H3041       H  0.29219486  0.36261585  0.70577831     0.18500
F3042       F  0.26715174  0.34556293  0.74101649    -0.19300
C3043       C  0.23195031  0.31211871  0.83487169    -0.20700
C3044       C  0.23831293  0.31878767  0.81132105    -0.08700
C3045       C  0.22452038  0.33664201  0.79979040     0.30100
C3046       C  0.20526037  0.34766250  0.81170520    -0.20700
C3047       C  0.19930316  0.34119287  0.83525737    -0.08700
C3048       C  0.21268402  0.32321636  0.84674542     0.30100
F3049       F  0.20721371  0.31659592  0.86953037    -0.19300
H3050       H  0.24209387  0.29849612  0.84430622     0.18500
H3051       H  0.19506384  0.36149941  0.80263058     0.18500
F3052       F  0.22939709  0.34341256  0.77693467    -0.19300
C3053       C  0.80298520  0.22049073  0.06274508    -0.20700
C3054       C  0.78472922  0.21031060  0.04808545    -0.08700
C3055       C  0.78165644  0.18520260  0.04713241     0.30100
C3056       C  0.79835933  0.17048769  0.05881338    -0.20700
C3057       C  0.81790944  0.18087764  0.07150948    -0.08700
C3058       C  0.81947265  0.20589729  0.07440858     0.30100
F3059       F  0.83736621  0.21613153  0.08795762    -0.19300
H3060       H  0.80544834  0.23988198  0.06379890     0.18500
H3061       H  0.79655244  0.15106523  0.05738363     0.18500
F3062       F  0.76385841  0.17499503  0.03346510    -0.19300
C3063       C  0.69805960  0.18144804  0.90565284    -0.20700
C3064       C  0.67297907  0.18376147  0.90689673    -0.08700
C3065       C  0.66271876  0.19838385  0.92490197     0.30100
C3066       C  0.67754417  0.21102103  0.94117979    -0.20700
C3067       C  0.70268082  0.20931511  0.93943827    -0.08700
C3068       C  0.71287146  0.19421511  0.92173451     0.30100
F3069       F  0.73718150  0.19201562  0.91990299    -0.19300
H3070       H  0.70609516  0.16983470  0.89212794     0.18500
H3071       H  0.66946515  0.22292375  0.95442163     0.18500
F3072       F  0.63840931  0.20068058  0.92638740    -0.19300
C3073       C  0.69713686  0.34117795  0.07056838    -0.20700
C3074       C  0.67204375  0.33945319  0.06875633    -0.08700
C3075       C  0.66131045  0.32046013  0.05540758     0.30100
C3076       C  0.67575530  0.30417099  0.04276706    -0.20700
C3077       C  0.70088166  0.30688469  0.04342427    -0.08700
C3078       C  0.71151187  0.32502561  0.05800541     0.30100
F3079       F  0.73587357  0.32762719  0.05935449    -0.19300
H3080       H  0.70552756  0.35534187  0.08138615     0.18500
H3081       H  0.66736098  0.29043006  0.03142480     0.18500
F3082       F  0.63693646  0.31824586  0.05402869    -0.19300
C3083       C  0.70398885  0.34698081  0.93483757    -0.20700
C3084       C  0.71287567  0.32480955  0.92614751    -0.08700
C3085       C  0.70026602  0.31304728  0.90709838     0.30100
C3086       C  0.67912543  0.32298975  0.89762265    -0.20700
C3087       C  0.67030040  0.34493431  0.90658730    -0.08700
C3088       C  0.68302287  0.35700358  0.92508752     0.30100
F3089       F  0.67514134  0.37854713  0.93366940    -0.19300
H3090       H  0.71299338  0.35639568  0.94958530     0.18500
H3091       H  0.66977637  0.31376406  0.88296094     0.18500
F3092       F  0.70782765  0.29157017  0.89803233    -0.19300
C3093       C  0.81340543  0.34879104  0.03892764    -0.20700
C3094       C  0.81688681  0.32400583  0.03486295    -0.08700
C3095       C  0.83009039  0.31078776  0.05211060     0.30100
C3096       C  0.83928214  0.32215995  0.07281023    -0.20700
C3097       C  0.83552654  0.34676677  0.07683108    -0.08700
C3098       C  0.82272584  0.36011851  0.05965155     0.30100
F3099       F  0.81929767  0.38413605  0.06298130    -0.19300
H3100       H  0.80307434  0.35933965  0.02627201     0.18500
H3101       H  0.84954069  0.31179430  0.08569062     0.18500
F3102       F  0.83333570  0.28664606  0.04963967    -0.19300
C3103       C  0.77654940  0.07426030  0.16337609    -0.20700
C3104       C  0.77245960  0.07973148  0.18777144    -0.08700
C3105       C  0.78688240  0.09756257  0.19936528     0.30100
C3106       C  0.80609578  0.10814115  0.18721253    -0.20700
C3107       C  0.81095275  0.10133523  0.16343797    -0.08700
C3108       C  0.79561529  0.08506096  0.15125085     0.30100
F3109       F  0.79978698  0.07889397  0.12792041    -0.19300
H3110       H  0.76580435  0.06064613  0.15405005     0.18500
H3111       H  0.81760787  0.12114417  0.19650377     0.18500
F3112       F  0.78377670  0.10339881  0.22295739    -0.19300
C3113       C  0.65952485  0.05006661  0.30363835    -0.20700
C3114       C  0.67687733  0.06469207  0.29239865    -0.08700
C3115       C  0.68092376  0.08831208  0.30114100     0.30100
C3116       C  0.66802391  0.09685867  0.32090489    -0.20700
C3117       C  0.65123817  0.08195197  0.33231387    -0.08700
C3118       C  0.64688305  0.05857690  0.32355037     0.30100
F3119       F  0.63024127  0.04418051  0.33411792    -0.19300
H3120       H  0.65634667  0.03166648  0.29760492     0.18500
H3121       H  0.67098951  0.11517936  0.32730425     0.18500
F3122       F  0.69743945  0.10303627  0.29080734    -0.19300
C3123       C  0.68939196  0.95552545  0.16909917    -0.20700
C3124       C  0.68184101  0.96394686  0.19182807    -0.08700
C3125       C  0.66239465  0.95217603  0.20317502     0.30100
C3126       C  0.65077433  0.93273383  0.19186053    -0.20700
C3127       C  0.65823462  0.92467401  0.16917226    -0.08700
C3128       C  0.67772564  0.93597923  0.15787213     0.30100
F3129       F  0.68543322  0.92804643  0.13603492    -0.19300
H3130       H  0.70464131  0.96373758  0.16019082     0.18500
H3131       H  0.63564380  0.92412587  0.20061875     0.18500
F3132       F  0.65469402  0.95914032  0.22533180    -0.19300
C3133       C  0.81909458  0.07263386  0.28633375    -0.20700
C3134       C  0.80619237  0.05451205  0.29821775    -0.08700
C3135       C  0.80734669  0.05325403  0.32340461     0.30100
C3136       C  0.82029878  0.07080609  0.33652883    -0.20700
C3137       C  0.83227178  0.08963092  0.32461281    -0.08700
C3138       C  0.83229645  0.08988714  0.29936196     0.30100
F3139       F  0.84453590  0.10723343  0.28737491    -0.19300
H3140       H  0.81805917  0.07400177  0.26689750     0.18500
H3141       H  0.82047847  0.07015600  0.35602169     0.18500
F3142       F  0.79452608  0.03625558  0.33529449    -0.19300
C3143       C  0.03808969  0.94500248  0.42805430    -0.20700
C3144       C  0.03743375  0.94385972  0.45324018    -0.08700
C3145       C  0.05524111  0.93059445  0.46548893     0.30100
C3146       C  0.07410205  0.91989794  0.45283243    -0.20700
C3147       C  0.07554388  0.92236071  0.42785273    -0.08700
C3148       C  0.05707349  0.93435058  0.41539674     0.30100
F3149       F  0.05811423  0.93673054  0.39112277    -0.19300
H3150       H  0.02499276  0.95566982  0.41838280     0.18500
H3151       H  0.08795122  0.91023934  0.46254396     0.18500
F3152       F  0.05513187  0.92922206  0.48989470    -0.19300
C3153       C  0.45116010  0.83827927  0.50409270    -0.20700
C3154       C  0.44087808  0.81746390  0.49323352    -0.08700
C3155       C  0.41888301  0.80861607  0.50248190     0.30100
C3156       C  0.40758278  0.82047726  0.52174590    -0.20700
C3157       C  0.41781951  0.84133103  0.53219211    -0.08700
C3158       C  0.43976514  0.85010437  0.52329516     0.30100
F3159       F  0.45002833  0.87027786  0.53305341    -0.19300
H3160       H  0.46799499  0.84566274  0.49759388     0.18500
H3161       H  0.39058985  0.81356180  0.52837485     0.18500
F3162       F  0.40801890  0.78869719  0.49285627    -0.19300
C3163       C  0.29578828  0.94181626  0.51209995    -0.20700
C3164       C  0.30895465  0.95811286  0.49791188    -0.08700
C3165       C  0.33361182  0.96193994  0.50335509     0.30100
C3166       C  0.34469620  0.94944941  0.52216166    -0.20700
C3167       C  0.33155295  0.93296164  0.53593234    -0.08700
C3168       C  0.30692304  0.92940043  0.53091726     0.30100
F3169       F  0.29379973  0.91346969  0.54387943    -0.19300
H3170       H  0.27682168  0.93847129  0.50853834     0.18500
H3171       H  0.36375189  0.95226340  0.52572634     0.18500
F3172       F  0.34730791  0.97713693  0.49011901    -0.19300
C3173       C  0.33155545  0.02919341  0.44393185    -0.20700
C3174       C  0.30946487  0.02032494  0.43463973    -0.08700
C3175       C  0.29979881  0.03114927  0.41377656     0.30100
C3176       C  0.31210919  0.05016053  0.40269636    -0.20700
C3177       C  0.33421065  0.05861002  0.41203862    -0.08700
C3178       C  0.34380361  0.04804391  0.43275033     0.30100
F3179       F  0.36521822  0.05587112  0.44200862    -0.19300
H3180       H  0.33957690  0.02144905  0.45987143     0.18500
H3181       H  0.30460378  0.05808472  0.38658298     0.18500
F3182       F  0.27870957  0.02327754  0.40378961    -0.19300
C3183       C  0.23373387  0.96804727  0.41663927    -0.20700
C3184       C  0.24113561  0.96271854  0.44027585    -0.08700
C3185       C  0.22703961  0.94657926  0.45383621     0.30100
C3186       C  0.20708287  0.93492737  0.44334635    -0.20700
C3187       C  0.20076577  0.93923237  0.41933239    -0.08700
C3188       C  0.21374371  0.95638062  0.40623097     0.30100
F3189       F  0.20759496  0.96106606  0.38305467    -0.19300
H3190       H  0.24398429  0.98050434  0.40579797     0.18500
H3191       H  0.19705466  0.92183852  0.45366687     0.18500
F3192       F  0.23273617  0.94160827  0.47705604    -0.19300
C3193       C  0.71172878  0.93489470  0.31164568    -0.20700
C3194       C  0.71133892  0.96012111  0.31268012    -0.08700
C3195       C  0.69430460  0.97188552  0.32728288     0.30100
C3196       C  0.67658770  0.95866380  0.33898710    -0.20700
C3197       C  0.67564431  0.93359172  0.33624833    -0.08700
C3198       C  0.69392923  0.92161000  0.32343362     0.30100
F3199       F  0.69365825  0.89721213  0.32119021    -0.19300
H3200       H  0.72440780  0.92563174  0.30007441     0.18500
H3201       H  0.66295619  0.96801204  0.34933587     0.18500
F3202       F  0.69356832  0.99634667  0.32843028    -0.19300
C3203       C  0.51397951  0.81026140  0.40991577    -0.20700
C3204       C  0.50643897  0.81685513  0.43325018    -0.08700
C3205       C  0.51956182  0.83496268  0.44589869     0.30100
C3206       C  0.53918882  0.84646827  0.43509971    -0.20700
C3207       C  0.54605386  0.84023471  0.41161564    -0.08700
C3208       C  0.53351171  0.82189854  0.39915840     0.30100
F3209       F  0.53995252  0.81558326  0.37641305    -0.19300
H3210       H  0.50439883  0.79646092  0.39965964     0.18500
H3211       H  0.54881278  0.86059217  0.44488611     0.18500
F3212       F  0.51347769  0.84171843  0.46862213    -0.19300
C3213       C  0.53471735  0.91747378  0.30836557    -0.20700
C3214       C  0.54940230  0.93003839  0.32501826    -0.08700
C3215       C  0.54469803  0.95444055  0.32987522     0.30100
C3216       C  0.52531061  0.96591868  0.31858774    -0.20700
C3217       C  0.51020634  0.95333370  0.30216772    -0.08700
C3218       C  0.51534012  0.92892207  0.29697667     0.30100
F3219       F  0.50110167  0.91573819  0.28173314    -0.19300
H3220       H  0.53793073  0.89854614  0.30467963     0.18500
H3221       H  0.52196154  0.98467414  0.32296059     0.18500
F3222       F  0.55834391  0.96690419  0.34622159    -0.19300
C3223       C  0.41370255  0.95748653  0.20924658    -0.20700
C3224       C  0.42160938  0.93545775  0.19960386    -0.08700
C3225       C  0.44213413  0.92463314  0.20957213     0.30100
C3226       C  0.45419797  0.93543070  0.22924237    -0.20700
C3227       C  0.44600720  0.95724404  0.23952353    -0.08700
C3228       C  0.42569106  0.96834763  0.22893720     0.30100
F3229       F  0.41700062  0.98947466  0.23775073    -0.19300
H3230       H  0.39779557  0.96597876  0.20184358     0.18500
H3231       H  0.46973150  0.92636251  0.23670990     0.18500
F3232       F  0.45011388  0.90326507  0.20064472    -0.19300
C3233       C  0.43224305  0.03256337  0.29330079    -0.20700
C3234       C  0.44990101  0.01878696  0.30511210    -0.08700
C3235       C  0.45672133  0.02561512  0.32884296     0.30100
C3236       C  0.44557675  0.04517832  0.34043712    -0.20700
C3237       C  0.42769634  0.05846208  0.32863304    -0.08700
C3238       C  0.42129992  0.05217107  0.30488125     0.30100
F3239       F  0.40385896  0.06457558  0.29317565    -0.19300
H3240       H  0.42660391  0.02800528  0.27509177     0.18500
H3241       H  0.45054881  0.04970325  0.35885355     0.18500
F3242       F  0.47354587  0.01302150  0.34123679    -0.19300
C3243       C  0.43965356  0.72528944  0.39551846    -0.20700
C3244       C  0.41811093  0.71583127  0.40470087    -0.08700
C3245       C  0.40899685  0.72531292  0.42628717     0.30100
C3246       C  0.42091606  0.74431935  0.43825025    -0.20700
C3247       C  0.44223423  0.75441686  0.42894377    -0.08700
C3248       C  0.45169380  0.74436419  0.40746122     0.30100
F3249       F  0.47227476  0.75312293  0.39763971    -0.19300
H3250       H  0.44686421  0.71818220  0.37881726     0.18500
H3251       H  0.41313547  0.75135136  0.45470395     0.18500
F3252       F  0.38821196  0.71642678  0.43553795    -0.19300
C3253       C  0.21381386  0.86130470  0.30857794    -0.20700
C3254       C  0.20390150  0.85080819  0.32911776    -0.08700
C3255       C  0.21300617  0.82880867  0.33722764     0.30100
C3256       C  0.23199261  0.81759947  0.32509728    -0.20700
C3257       C  0.24231679  0.82806369  0.30454344    -0.08700
C3258       C  0.23276611  0.85007824  0.29628002     0.30100
F3259       F  0.24172831  0.86096775  0.27647343    -0.19300
H3260       H  0.20692800  0.87831475  0.30217371     0.18500
H3261       H  0.23872118  0.80075134  0.33202497     0.18500
F3262       F  0.20374034  0.81839859  0.35717014    -0.19300
C3263       C  0.32181298  0.75067498  0.29080873    -0.20700
C3264       C  0.30137675  0.76146240  0.30123993    -0.08700
C3265       C  0.29134051  0.75062687  0.32187094     0.30100
C3266       C  0.30217123  0.73035828  0.33216201    -0.20700
C3267       C  0.32294341  0.72023752  0.32204288    -0.08700
C3268       C  0.33239068  0.73026851  0.30098556     0.30100
F3269       F  0.35238025  0.72072472  0.29072669    -0.19300
H3270       H  0.32995832  0.75824075  0.27490495     0.18500
H3271       H  0.29460573  0.72278712  0.34836160     0.18500
F3272       F  0.27130657  0.75970919  0.33246079    -0.19300
C3273       C  0.29481487  0.84781527  0.23067752    -0.20700
C3274       C  0.30489175  0.82702430  0.24102482    -0.08700
C3275       C  0.32650194  0.81794973  0.23116495     0.30100
C3276       C  0.33773693  0.82962962  0.21195288    -0.20700
C3277       C  0.32775908  0.85045815  0.20201426    -0.08700
C3278       C  0.30607690  0.85938793  0.21139092     0.30100
F3279       F  0.29601719  0.87952006  0.20210010    -0.19300
H3280       H  0.27823009  0.85531542  0.23760402     0.18500
H3281       H  0.35448615  0.82256004  0.20494233     0.18500
F3282       F  0.33715038  0.79803218  0.24023761    -0.19300
C3283       C  0.43657097  0.09331665  0.03774380    -0.20700
C3284       C  0.45017204  0.07695084  0.05141241    -0.08700
C3285       C  0.44221704  0.07109134  0.07469839     0.30100
C3286       C  0.42078717  0.08068703  0.08358998    -0.20700
C3287       C  0.40693717  0.09631486  0.06959425    -0.08700
C3288       C  0.41516141  0.10298884  0.04678322     0.30100
F3289       F  0.40273240  0.11923305  0.03356646    -0.19300
H3290       H  0.44212464  0.09814499  0.01976269     0.18500
H3291       H  0.41511311  0.07623501  0.10164212     0.18500
F3292       F  0.45500919  0.05596493  0.08887867    -0.19300
C3293       C  0.59573512  0.07297336  0.93096017    -0.20700
C3294       C  0.58716451  0.09534674  0.92329989    -0.08700
C3295       C  0.57018384  0.10765359  0.93730954     0.30100
C3296       C  0.56074025  0.09701506  0.95788406    -0.20700
C3297       C  0.56786013  0.07374930  0.96477375    -0.08700
C3298       C  0.58628200  0.06220801  0.95157116     0.30100
F3299       F  0.59422064  0.03997694  0.95764854    -0.19300
H3300       H  0.60945744  0.06368670  0.92068483     0.18500
H3301       H  0.54669813  0.10646330  0.96755200     0.18500
F3302       F  0.56213058  0.12964068  0.93058805    -0.19300
C3303       C  0.57402889  0.96142113  0.05669890    -0.20700
C3304       C  0.55223910  0.97191303  0.06413216    -0.08700
C3305       C  0.53913273  0.96097934  0.08287394     0.30100
C3306       C  0.54731984  0.93963596  0.09313128    -0.20700
C3307       C  0.56872851  0.92907305  0.08514822    -0.08700
C3308       C  0.58222966  0.94023618  0.06714287     0.30100
F3309       F  0.60337803  0.93054721  0.05970809    -0.19300
H3310       H  0.58440350  0.96920551  0.04224249     0.18500
H3311       H  0.53715263  0.93146104  0.10752533     0.18500
F3312       F  0.51790920  0.97022563  0.09065331    -0.19300
C3313       C  0.41640556  0.96509840  0.03954497    -0.20700
C3314       C  0.44037639  0.95848035  0.03503996    -0.08700
C3315       C  0.45082959  0.94013710  0.04885212     0.30100
C3316       C  0.43792871  0.92934534  0.06743946    -0.20700
C3317       C  0.41443734  0.93679601  0.07277635    -0.08700
C3318       C  0.40341066  0.95420094  0.05815982     0.30100
F3319       F  0.38042393  0.96123838  0.06250354    -0.19300
H3320       H  0.40832397  0.97978899  0.02973482     0.18500
H3321       H  0.44648123  0.91557315  0.07814340     0.18500
F3322       F  0.47421313  0.93390659  0.04543584    -0.19300
C3323       C  0.41499487  0.07839232  0.92335980    -0.20700
C3324       C  0.42763493  0.09604351  0.91041971    -0.08700
C3325       C  0.45269995  0.09405347  0.90803523     0.30100
C3326       C  0.46504085  0.07565142  0.91979358    -0.20700
C3327       C  0.45260238  0.05871173  0.93385717    -0.08700
C3328       C  0.42733787  0.05981390  0.93498687     0.30100
F3329       F  0.41481154  0.04416362  0.94882412    -0.19300
H3330       H  0.39554846  0.07936563  0.92484166     0.18500
H3331       H  0.48455630  0.07526220  0.91885791     0.18500
F3332       F  0.46522094  0.11008980  0.89462827    -0.19300
C3333       C  0.03792562  0.80127389  0.17303892    -0.20700
C3334       C  0.04658923  0.79745934  0.19645887    -0.08700
C3335       C  0.06563037  0.81173721  0.20562430     0.30100
C3336       C  0.07483112  0.83058794  0.19211211    -0.20700
C3337       C  0.06534019  0.83521332  0.16922306    -0.08700
C3338       C  0.04732536  0.82008368  0.15937962     0.30100
F3339       F  0.03839714  0.82402282  0.13695815    -0.19300
H3340       H  0.02273932  0.79088557  0.16606757     0.18500
H3341       H  0.08928150  0.84172737  0.19949067     0.18500
F3342       F  0.07421859  0.80832715  0.22828509    -0.19300
C3343       C  0.91086460  0.70970964  0.30837078    -0.20700
C3344       C  0.93275807  0.71916848  0.31747799    -0.08700
C3345       C  0.94317562  0.70858083  0.33805411     0.30100
C3346       C  0.93203613  0.68884040  0.34882919    -0.20700
C3347       C  0.91071462  0.67904596  0.33909605    -0.08700
C3348       C  0.90014597  0.68961473  0.31880668     0.30100
F3349       F  0.87934006  0.68054487  0.30922866    -0.19300
H3350       H  0.90252463  0.71714161  0.29242882     0.18500
H3351       H  0.94018743  0.68094818  0.36465007     0.18500
F3352       F  0.96449559  0.71667076  0.34734681    -0.19300
C3353       C  0.90552580  0.70772700  0.16950876    -0.20700
C3354       C  0.90605338  0.68249903  0.16994466    -0.08700
C3355       C  0.92502737  0.67089626  0.18208743     0.30100
C3356       C  0.94268711  0.68446519  0.19438936    -0.20700
C3357       C  0.94138622  0.70967471  0.19492603    -0.08700
C3358       C  0.92291649  0.72124286  0.18205298     0.30100
F3359       F  0.92139123  0.74567313  0.18216891    -0.19300
H3360       H  0.89136375  0.71690472  0.15977234     0.18500
H3361       H  0.95653833  0.67530648  0.20457530     0.18500
F3362       F  0.92598678  0.64646365  0.18262049    -0.19300
C3363       C  0.05307402  0.80434373  0.33198453    -0.20700
C3364       C  0.03709550  0.81714900  0.31709558    -0.08700
C3365       C  0.04161893  0.84180124  0.31300399     0.30100
C3366       C  0.06211809  0.85296078  0.32284439    -0.20700
C3367       C  0.07838027  0.83984260  0.33686196    -0.08700
C3368       C  0.07358145  0.81558374  0.34176803     0.30100
F3369       F  0.08853693  0.80297915  0.35633615    -0.19300
H3370       H  0.05020360  0.78535975  0.33538653     0.18500
H3371       H  0.06524326  0.87197451  0.31975544     0.18500
F3372       F  0.02646522  0.85508856  0.29927221    -0.19300
C3373       C  0.04837505  0.66593317  0.31456807    -0.20700
C3374       C  0.07224275  0.67273536  0.31961370    -0.08700
C3375       C  0.08359966  0.69029762  0.30554099     0.30100
C3376       C  0.07040390  0.70246001  0.28796465    -0.20700
C3377       C  0.04597844  0.69683572  0.28410474    -0.08700
C3378       C  0.03528904  0.67789874  0.29687116     0.30100
F3379       F  0.01155907  0.67248324  0.29364822    -0.19300
H3380       H  0.03965681  0.65205207  0.32502477     0.18500
H3381       H  0.07867158  0.71746809  0.27874114     0.18500
F3382       F  0.10697471  0.69656750  0.30979874    -0.19300
C3383       C  0.78035727  0.68757795  0.43191821    -0.20700
C3384       C  0.79048018  0.70764515  0.44404192    -0.08700
C3385       C  0.81561279  0.71076380  0.44458814     0.30100
C3386       C  0.83037255  0.69318205  0.43427031    -0.20700
C3387       C  0.82014282  0.67265952  0.42301624    -0.08700
C3388       C  0.79502592  0.67027753  0.42135797     0.30100
F3389       F  0.78474673  0.65106317  0.40978362    -0.19300
H3390       H  0.76097512  0.68488808  0.43135969     0.18500
H3391       H  0.84979183  0.69537833  0.43521363     0.18500
F3392       F  0.82586760  0.72985379  0.45636807    -0.19300
C3393       C  0.69203654  0.83322052  0.45603647    -0.20700
C3394       C  0.70558515  0.81524503  0.44445934    -0.08700
C3395       C  0.70304469  0.81162057  0.41951753     0.30100
C3396       C  0.68628881  0.82519931  0.40657450    -0.20700
C3397       C  0.67184850  0.84219706  0.41851465    -0.08700
C3398       C  0.67532179  0.84669587  0.44316636     0.30100
F3399       F  0.66186219  0.86344122  0.45487177    -0.19300
H3400       H  0.69338145  0.83576846  0.47538707     0.18500
H3401       H  0.68382007  0.82179958  0.38746032     0.18500
F3402       F  0.71513603  0.79362464  0.40816673    -0.19300
C3403       C  0.68303729  0.80412851  0.58106541    -0.20700
C3404       C  0.67624082  0.79691077  0.55761476    -0.08700
C3405       C  0.65945229  0.81111360  0.54482214     0.30100
C3406       C  0.65039582  0.83219768  0.55508958    -0.20700
C3407       C  0.65735587  0.83926345  0.57835444    -0.08700
C3408       C  0.67352304  0.82503186  0.59143741     0.30100
F3409       F  0.67982987  0.83126692  0.61435332    -0.19300
H3410       H  0.69610245  0.79388441  0.59122143     0.18500
H3411       H  0.63727084  0.84265348  0.54521125     0.18500
F3412       F  0.65210183  0.80509923  0.52214082    -0.19300
C3413       C  0.67564267  0.67329361  0.44992574    -0.20700
C3414       C  0.67094682  0.69756461  0.45566574    -0.08700
C3415       C  0.65461836  0.71041028  0.44099917     0.30100
C3416       C  0.64421646  0.69941399  0.42063079    -0.20700
C3417       C  0.64964257  0.67549806  0.41468728    -0.08700
C3418       C  0.66501539  0.66232511  0.42969912     0.30100
F3419       F  0.66975709  0.63882305  0.42467210    -0.19300
H3420       H  0.68809970  0.66293379  0.46070192     0.18500
H3421       H  0.63172264  0.70945680  0.40958269     0.18500
F3422       F  0.64919539  0.73380702  0.44578553    -0.19300
C3423       C  0.79554178  0.70118841  0.57537242    -0.20700
C3424       C  0.78424356  0.69325983  0.55387639    -0.08700
C3425       C  0.79564982  0.67514204  0.53998568     0.30100
C3426       C  0.81771420  0.66555770  0.54735294    -0.20700
C3427       C  0.82861987  0.67322855  0.56894983    -0.08700
C3428       C  0.81739399  0.69110787  0.58296903     0.30100
F3429       F  0.82743899  0.69851780  0.60418690    -0.19300
H3430       H  0.78756675  0.71535883  0.58622345     0.18500
H3431       H  0.82593730  0.65143106  0.53661974     0.18500
F3432       F  0.78593329  0.66704009  0.51886416    -0.19300
C3433       C  0.17142411  0.05757796  0.79617940    -0.20700
C3434       C  0.19645000  0.05789259  0.80006070    -0.08700
C3435       C  0.20635049  0.07227154  0.81874047     0.30100
C3436       C  0.19134963  0.08532636  0.83394247    -0.20700
C3437       C  0.16633777  0.08419538  0.83075516    -0.08700
C3438       C  0.15636061  0.07068236  0.81151622     0.30100
F3439       F  0.13210748  0.06982813  0.80798130    -0.19300
H3440       H  0.16354244  0.04648232  0.78195190     0.18500
H3441       H  0.19918474  0.09621114  0.84836266     0.18500
F3442       F  0.23058172  0.07357588  0.82234135    -0.19300
C3443       C  0.16005915  0.94499266  0.68228304    -0.20700
C3444       C  0.17227192  0.92976074  0.66613683    -0.08700
C3445       C  0.19713917  0.93265476  0.66273492     0.30100
C3446       C  0.20994915  0.94918719  0.67693971    -0.20700
C3447       C  0.19797313  0.96332428  0.69417572    -0.08700
C3448       C  0.17285762  0.96188186  0.69621109     0.30100
F3449       F  0.16110133  0.97522667  0.71303066    -0.19300
H3450       H  0.14076395  0.94310492  0.68468723     0.18500
H3451       H  0.22941378  0.95015184  0.67536401     0.18500
F3452       F  0.20907210  0.91877537  0.64647844    -0.19300
C3453       C  0.28520667  0.08439785  0.70209640    -0.20700
C3454       C  0.28084731  0.06021675  0.69581013    -0.08700
C3455       C  0.29359704  0.04945710  0.67679398     0.30100
C3456       C  0.31168013  0.06222772  0.66528262    -0.20700
C3457       C  0.31713191  0.08584849  0.67256217    -0.08700
C3458       C  0.30331209  0.09729582  0.69039329     0.30100
F3459       F  0.30818003  0.12040816  0.69721552    -0.19300
H3460       H  0.27604017  0.09258279  0.71727258     0.18500
H3461       H  0.32194720  0.05352639  0.65113871     0.18500
F3462       F  0.29004775  0.02583463  0.67097599    -0.19300
C3463       C  0.33288557  0.95240880  0.69714083    -0.20700
C3464       C  0.31037370  0.94429432  0.70549515    -0.08700
C3465       C  0.29779150  0.92649655  0.69190505     0.30100
C3466       C  0.30757281  0.91715328  0.67063112    -0.20700
C3467       C  0.33004879  0.92520292  0.66251193    -0.08700
C3468       C  0.34274058  0.94281316  0.67595794     0.30100
F3469       F  0.36473671  0.95057727  0.66861828    -0.19300
H3470       H  0.34273771  0.96641126  0.70686757     0.18500
H3471       H  0.29779155  0.90329341  0.66062541     0.18500
F3472       F  0.27551835  0.91883079  0.69851270    -0.19300
C3473       C  0.31182149  0.05464187  0.83155312    -0.20700
C3474       C  0.31695316  0.04744179  0.80776040    -0.08700
C3475       C  0.33277365  0.06180844  0.79401572     0.30100
C3476       C  0.34263080  0.08298909  0.80378081    -0.20700
C3477       C  0.33702146  0.09017023  0.82727144    -0.08700
C3478       C  0.32179505  0.07581187  0.84125003     0.30100
F3479       F  0.31652710  0.08240792  0.86423772    -0.19300
H3480       H  0.29948919  0.04428743  0.84245898     0.18500
H3481       H  0.35482114  0.09375679  0.79310096     0.18500
F3482       F  0.33804933  0.05605483  0.77081795    -0.19300
C3483       C  0.04940583  0.44229485  0.08478328    -0.20700
C3484       C  0.06486034  0.42680470  0.07215966    -0.08700
C3485       C  0.07325828  0.43347004  0.04944645     0.30100
C3486       C  0.06630575  0.45535773  0.03948617    -0.20700
C3487       C  0.05057562  0.47096893  0.05185844    -0.08700
C3488       C  0.04208443  0.46409108  0.07470791     0.30100
F3489       F  0.02643399  0.47812503  0.08719692    -0.19300
H3490       H  0.04333229  0.43761579  0.10264101     0.18500
H3491       H  0.07285776  0.45977451  0.02173758     0.18500
F3492       F  0.08885025  0.41909988  0.03728962    -0.19300
C3493       C  0.04801982  0.60035080  0.94379086    -0.20700
C3494       C  0.05438227  0.57701270  0.95099174    -0.08700
C3495       C  0.07187791  0.56431565  0.93757263     0.30100
C3496       C  0.08262256  0.57479075  0.91754306    -0.20700
C3497       C  0.07620118  0.59800411  0.91048319    -0.08700
C3498       C  0.05899080  0.61086150  0.92383941     0.30100
F3499       F  0.05305732  0.63368172  0.91765091    -0.19300
H3500       H  0.03436626  0.61036008  0.95346002     0.18500
H3501       H  0.09621451  0.56490320  0.90765319     0.18500
F3502       F  0.07789299  0.54133176  0.94306781    -0.19300
C3503       C  0.93695078  0.59586839  0.04442608    -0.20700
C3504       C  0.95124632  0.57785819  0.05494690    -0.08700
C3505       C  0.94545226  0.56992711  0.07829489     0.30100
C3506       C  0.92555440  0.57937045  0.09036241    -0.20700
C3507       C  0.91104203  0.59668219  0.07942447    -0.08700
C3508       C  0.91695877  0.60514731  0.05652172     0.30100
F3509       F  0.90335868  0.62237614  0.04595014    -0.19300
H3510       H  0.94067408  0.60217074  0.02643814     0.18500
H3511       H  0.92135068  0.57310777  0.10826734     0.18500
F3512       F  0.95857803  0.55262369  0.08931559    -0.19300
C3513       C  0.05002861  0.47264453  0.91892216    -0.20700
C3514       C  0.03294192  0.46201560  0.93421425    -0.08700
C3515       C  0.03363602  0.43703236  0.93787685     0.30100
C3516       C  0.05212677  0.42326386  0.92763062    -0.20700
C3517       C  0.07006560  0.43429339  0.91369686    -0.08700
C3518       C  0.06838682  0.45891759  0.90866209     0.30100
F3519       F  0.08494903  0.46975074  0.89442378    -0.19300
H3520       H  0.05000479  0.49195271  0.91614649     0.18500
H3521       H  0.05295782  0.40412855  0.93118084     0.18500
F3522       F  0.01785812  0.42639378  0.95308137    -0.19300
C3523       C  0.90749506  0.44662240  0.06141498    -0.20700
C3524       C  0.92056810  0.43668991  0.08074727    -0.08700
C3525       C  0.94585012  0.43695898  0.08002851     0.30100
C3526       C  0.95774210  0.44786954  0.06090486    -0.20700
C3527       C  0.94473650  0.45841976  0.04193143    -0.08700
C3528       C  0.91946959  0.45733139  0.04206034     0.30100
F3529       F  0.90644380  0.46785219  0.02432208    -0.19300
H3530       H  0.88795760  0.44608964  0.06142456     0.18500
H3531       H  0.97728235  0.44884374  0.06128436     0.18500
F3532       F  0.95902226  0.42665979  0.09780446    -0.19300
C3533       C  0.14640052  0.81940934  0.07178446    -0.20700
C3534       C  0.15773443  0.83525976  0.08814292    -0.08700
C3535       C  0.18101473  0.83025394  0.09659643     0.30100
C3536       C  0.19346876  0.81040229  0.08741492    -0.20700
C3537       C  0.18277221  0.79528427  0.06974296    -0.08700
C3538       C  0.15868633  0.79949156  0.06269614     0.30100
F3539       F  0.14724722  0.78490065  0.04639464    -0.19300
H3540       H  0.12797403  0.82256023  0.06605182     0.18500
H3541       H  0.21192421  0.80764228  0.09323060     0.18500
F3542       F  0.19160354  0.84458727  0.11366209    -0.19300
C3543       C  0.19413555  0.68774432  0.94214720    -0.20700
C3544       C  0.18299219  0.70575261  0.95614943    -0.08700
C3545       C  0.16082344  0.71532643  0.94824195     0.30100
C3546       C  0.15005672  0.70667403  0.92697578    -0.20700
C3547       C  0.16142795  0.68880335  0.91319245    -0.08700
C3548       C  0.18356784  0.67948672  0.92079272     0.30100
F3549       F  0.19446942  0.66171970  0.90792951    -0.19300
H3550       H  0.21138106  0.68031886  0.94740910     0.18500
H3551       H  0.13262983  0.71350573  0.92147630     0.18500
F3552       F  0.14957491  0.73301056  0.96091404    -0.19300
C3553       C  0.32954892  0.68018936  0.94954522    -0.20700
C3554       C  0.32482925  0.67780803  0.92481224    -0.08700
C3555       C  0.30935734  0.69438133  0.91361131     0.30100
C3556       C  0.29819781  0.71257041  0.92721965    -0.20700
C3557       C  0.30226406  0.71437517  0.95214187    -0.08700
C3558       C  0.31824902  0.69816845  0.96314716     0.30100
F3559       F  0.32215144  0.69918547  0.98730932    -0.19300
H3560       H  0.34176453  0.66787263  0.95834236     0.18500
H3561       H  0.28528380  0.72428412  0.91857920     0.18500
F3562       F  0.30451475  0.69245449  0.88966457    -0.19300
C3563       C  0.31385235  0.66305156  0.05681948    -0.20700
C3564       C  0.32400387  0.66980961  0.07903348    -0.08700
C3565       C  0.31306189  0.68771549  0.09315011     0.30100
C3566       C  0.29257417  0.69942505  0.08467547    -0.20700
C3567       C  0.28255564  0.69316069  0.06214068    -0.08700
C3568       C  0.29317740  0.67449773  0.04840722     0.30100
F3569       F  0.28452884  0.66824520  0.02623960    -0.19300
H3570       H  0.32191575  0.64881133  0.04611410     0.18500
H3571       H  0.28494009  0.71387324  0.09541961     0.18500
F3572       F  0.32234874  0.69389066  0.11507104    -0.19300
C3573       C  0.30782962  0.85711378  0.06054620    -0.20700
C3574       C  0.32567597  0.84785363  0.07588690    -0.08700
C3575       C  0.33293686  0.82381387  0.07300156     0.30100
C3576       C  0.32134267  0.80882320  0.05612555    -0.20700
C3577       C  0.30267941  0.81767595  0.04155612    -0.08700
C3578       C  0.29634196  0.84210005  0.04344733     0.30100
F3579       F  0.27781683  0.85088375  0.03014791    -0.19300
H3580       H  0.30233843  0.87574696  0.06237077     0.18500
H3581       H  0.32603508  0.78989708  0.05529700     0.18500
F3582       F  0.35067401  0.81469009  0.08712433    -0.19300
C3583       C  0.45656329  0.68763465  0.67690408    -0.20700
C3584       C  0.45427926  0.69076712  0.70186987    -0.08700
C3585       C  0.43587344  0.67825583  0.71399955     0.30100
C3586       C  0.41896207  0.66441637  0.70114789    -0.20700
C3587       C  0.41994080  0.66301420  0.67598677    -0.08700
C3588       C  0.43941593  0.67391340  0.66397625     0.30100
F3589       F  0.44088505  0.67258610  0.63960337    -0.19300
H3590       H  0.47036711  0.69735766  0.66721486     0.18500
H3591       H  0.40436128  0.65576498  0.71070194     0.18500
F3592       F  0.43332819  0.68076773  0.73821421    -0.19300
C3593       C  0.42173892  0.80122553  0.68273133    -0.20700
C3594       C  0.43324625  0.81499628  0.70103738    -0.08700
C3595       C  0.43566669  0.84005085  0.69800313     0.30100
C3596       C  0.42685296  0.85089245  0.67715730    -0.20700
C3597       C  0.41538268  0.83709345  0.65898284    -0.08700
C3598       C  0.41290221  0.81213257  0.66189366     0.30100
F3599       F  0.40145527  0.79843742  0.64485547    -0.19300
H3600       H  0.42002931  0.78184343  0.68426575     0.18500
H3601       H  0.42833958  0.87027987  0.67542222     0.18500
F3602       F  0.44634814  0.85413832  0.71521573    -0.19300
C3603       C  0.40944297  0.71845442  0.80868946    -0.20700
C3604       C  0.43375359  0.72368632  0.81421284    -0.08700
C3605       C  0.44561697  0.70960530  0.83167430     0.30100
C3606       C  0.43389609  0.68982458  0.84185706    -0.20700
C3607       C  0.41015635  0.68394142  0.83517607    -0.08700
C3608       C  0.39769533  0.69887096  0.81918611     0.30100
F3609       F  0.37430067  0.69415866  0.81337919    -0.19300
H3610       H  0.39977132  0.72892066  0.79546025     0.18500
H3611       H  0.44339656  0.67891773  0.85485365     0.18500
F3612       F  0.46895421  0.71400587  0.83799186    -0.19300
C3613       C  0.56869384  0.71996209  0.80610963    -0.20700
C3614       C  0.55448334  0.70791126  0.78865044    -0.08700
C3615       C  0.55301835  0.68266120  0.78878680     0.30100
C3616       C  0.56510631  0.66976869  0.80672249    -0.20700
C3617       C  0.57858881  0.68199810  0.82470373    -0.08700
C3618       C  0.58074099  0.70716113  0.82392236     0.30100
F3619       F  0.59412921  0.71933430  0.84069517    -0.19300
H3620       H  0.56952702  0.73949336  0.80657472     0.18500
H3621       H  0.56361055  0.65029308  0.80693104     0.18500
F3622       F  0.53857488  0.67070957  0.77274384    -0.19300
C3623       C  0.56624649  0.79725244  0.68288686    -0.20700
C3624       C  0.54107683  0.79885491  0.68411776    -0.08700
C3625       C  0.52919440  0.81772623  0.67221160     0.30100
C3626       C  0.54238543  0.83573548  0.66099270    -0.20700
C3627       C  0.56758402  0.83533042  0.66156536    -0.08700
C3628       C  0.57951356  0.81542924  0.67162712     0.30100
F3629       F  0.60396709  0.81421185  0.67151136    -0.19300
H3630       H  0.57567996  0.78307463  0.69224245     0.18500
H3631       H  0.53297138  0.85052472  0.65259460     0.18500
F3632       F  0.50479714  0.81967604  0.67301183    -0.19300
C3633       C  0.19208895  0.15688991  0.41302412    -0.20700
C3634       C  0.16748619  0.15983772  0.40836778    -0.08700
C3635       C  0.15368230  0.17486262  0.42326626     0.30100
C3636       C  0.16452274  0.18722954  0.44248722    -0.20700
C3637       C  0.18926513  0.18460913  0.44722442    -0.08700
C3638       C  0.20301137  0.16918599  0.43232445     0.30100
F3639       F  0.22718057  0.16689367  0.43557658    -0.19300
H3640       H  0.20278690  0.14520053  0.40161324     0.18500
H3641       H  0.15364762  0.19922614  0.45339207     0.18500
F3642       F  0.12974679  0.17774562  0.41892567    -0.19300
C3643       C  0.29089709  0.16788287  0.54627796    -0.20700
C3644       C  0.27830625  0.18733262  0.55671717    -0.08700
C3645       C  0.28509780  0.19553266  0.57995161     0.30100
C3646       C  0.30478943  0.18533254  0.59171524    -0.20700
C3647       C  0.31793319  0.16689652  0.58061876    -0.08700
C3648       C  0.31057817  0.15775334  0.55811408     0.30100
F3649       F  0.32238783  0.13898727  0.54773346    -0.19300
H3650       H  0.28611074  0.16106599  0.52850495     0.18500
H3651       H  0.30991406  0.19186621  0.60950779     0.18500
F3652       F  0.27350179  0.21407355  0.59093534    -0.19300
C3653       C  0.29531166  0.33062323  0.58208568    -0.20700
C3654       C  0.32052507  0.32997040  0.58199863    -0.08700
C3655       C  0.33251381  0.31707708  0.56370424     0.30100
C3656       C  0.31923242  0.30455945  0.54597356    -0.20700
C3657       C  0.29397139  0.30473740  0.54653986    -0.08700
C3658       C  0.28210083  0.31798992  0.56462335     0.30100
F3659       F  0.25762643  0.31851523  0.56546357    -0.19300
H3660       H  0.28589913  0.34092626  0.59575943     0.18500
H3661       H  0.32858051  0.29403213  0.53243319     0.18500
F3662       F  0.35698180  0.31641959  0.56325104    -0.19300
C3663       C  0.17664697  0.31299773  0.40682842    -0.20700
C3664       C  0.17095369  0.33589766  0.41588267    -0.08700
C3665       C  0.18503884  0.34607718  0.43460719     0.30100
C3666       C  0.20352428  0.33264979  0.44529421    -0.20700
C3667       C  0.20829035  0.30912565  0.43709549    -0.08700
C3668       C  0.19520944  0.29974733  0.41725960     0.30100
F3669       F  0.19928960  0.27694167  0.40918190    -0.19300
H3670       H  0.16634976  0.30523100  0.39197045     0.18500
H3671       H  0.21285191  0.33989878  0.46101833     0.18500
F3672       F  0.18021064  0.36856630  0.44311347    -0.19300
C3673       C  0.30824030  0.18300299  0.40922095    -0.20700
C3674       C  0.33329908  0.18422130  0.41210369    -0.08700
C3675       C  0.34358069  0.20294982  0.42624179     0.30100
C3676       C  0.32866725  0.21903361  0.43889901    -0.20700
C3677       C  0.30349139  0.21654931  0.43732353    -0.08700
C3678       C  0.29346061  0.19890106  0.42174620     0.30100
F3679       F  0.26916554  0.19615512  0.41976313    -0.19300
H3680       H  0.30009834  0.16902331  0.39798057     0.18500
H3681       H  0.33669520  0.23227348  0.45106468     0.18500
F3682       F  0.36789569  0.20481166  0.42878034    -0.19300
C3683       C  0.16314895  0.30977061  0.52832324    -0.20700
C3684       C  0.17529169  0.29403688  0.54401524    -0.08700
C3685       C  0.17648297  0.29993724  0.56871398     0.30100
C3686       C  0.16598205  0.32116560  0.57730629    -0.20700
C3687       C  0.15453196  0.33705636  0.56146543    -0.08700
C3688       C  0.15300946  0.33117666  0.53691744     0.30100
F3689       F  0.14180290  0.34615122  0.52132095    -0.19300
H3690       H  0.16239429  0.30606851  0.50913096     0.18500
H3691       H  0.16686500  0.32536189  0.59640429     0.18500
F3692       F  0.18810533  0.28547510  0.58449324    -0.19300
C3693       C  0.18970752  0.44275396  0.16518384    -0.20700
C3694       C  0.17809526  0.45938126  0.18045961    -0.08700
C3695       C  0.15324874  0.45648696  0.18485802     0.30100
C3696       C  0.14055492  0.43710610  0.17447408    -0.20700
C3697       C  0.15242422  0.42025992  0.15978330    -0.08700
C3698       C  0.17701893  0.42332148  0.15498290     0.30100
F3699       F  0.18862230  0.40766563  0.14016236    -0.19300
H3700       H  0.20887365  0.44426990  0.16179203     0.18500
H3701       H  0.12137139  0.43530128  0.17766834     0.18500
F3702       F  0.14125791  0.47227270  0.19923203    -0.19300
C3703       C  0.29841369  0.54759784  0.16356721    -0.20700
C3704       C  0.28428311  0.55964408  0.18087933    -0.08700
C3705       C  0.29142485  0.58295456  0.18869798     0.30100
C3706       C  0.31218981  0.59367160  0.17946769    -0.20700
C3707       C  0.32626511  0.58138107  0.16254825    -0.08700
C3708       C  0.31925660  0.55832814  0.15453019     0.30100
F3709       F  0.33226776  0.54653913  0.13749622    -0.19300
H3710       H  0.29368938  0.52957321  0.15738641     0.18500
H3711       H  0.31715654  0.61177469  0.18523685     0.18500
F3712       F  0.27872678  0.59529257  0.20558365    -0.19300
C3713       C  0.28897280  0.56032223  0.31904781    -0.20700
C3714       C  0.29483727  0.55500034  0.29503401    -0.08700
C3715       C  0.31236334  0.56909804  0.28346278     0.30100
C3716       C  0.32389452  0.58812192  0.29576692    -0.20700
C3717       C  0.31784056  0.59365150  0.31966281    -0.08700
C3718       C  0.30041219  0.57951853  0.33133147     0.30100
F3719       F  0.29427390  0.58455721  0.35445859    -0.19300
H3720       H  0.27484966  0.55026334  0.32792431     0.18500
H3721       H  0.33758635  0.59858228  0.28668729     0.18500
F3722       F  0.31786961  0.56476741  0.26001922    -0.19300
C3723       C  0.20604219  0.44911689  0.32509130    -0.20700
C3724       C  0.20376152  0.44629346  0.30004501    -0.08700
C3725       C  0.18537264  0.43127461  0.29048768     0.30100
C3726       C  0.16849695  0.42079000  0.30559778    -0.20700
C3727       C  0.16971894  0.42496237  0.33044506    -0.08700
C3728       C  0.18906438  0.43844656  0.34030004     0.30100
F3729       F  0.19082810  0.44213833  0.36445445    -0.19300
H3730       H  0.21981707  0.46092065  0.33271915     0.18500
H3731       H  0.15405497  0.40985821  0.29788853     0.18500
F3732       F  0.18287776  0.42797983  0.26631015    -0.19300
C3733       C  0.15272036  0.56322290  0.31715651    -0.20700
C3734       C  0.15902837  0.58726441  0.32169251    -0.08700
C3735       C  0.17400428  0.59952971  0.30560257     0.30100
C3736       C  0.18351194  0.58740526  0.28567556    -0.20700
C3737       C  0.17778681  0.56300932  0.28131513    -0.08700
C3738       C  0.16177033  0.55116833  0.29705019     0.30100
F3739       F  0.15556565  0.52763639  0.29372678    -0.19300
H3740       H  0.14051880  0.55390895  0.32909766     0.18500
H3741       H  0.19580290  0.59693742  0.27400842     0.18500
F3742       F  0.17940631  0.62320335  0.30927055    -0.19300
C3743       C  0.29032025  0.42708019  0.19350234    -0.20700
C3744       C  0.29926712  0.44448073  0.20993788    -0.08700
C3745       C  0.32388048  0.45056625  0.20963626     0.30100
C3746       C  0.33869449  0.44117951  0.19149630    -0.20700
C3747       C  0.32904784  0.42553074  0.17375250    -0.08700
C3748       C  0.30511378  0.41755335  0.17562240     0.30100
F3749       F  0.29587292  0.40127729  0.15953425    -0.19300
H3750       H  0.27133442  0.42227811  0.19339191     0.18500
H3751       H  0.35740847  0.44682812  0.19066863     0.18500
F3752       F  0.33293940  0.46736435  0.22527343    -0.19300
C3753       C  0.95605737  0.17560172  0.82703514    -0.20700
C3754       C  0.93086954  0.17616218  0.82846166    -0.08700
C3755       C  0.91833975  0.19568692  0.81831237     0.30100
C3756       C  0.93087316  0.21377856  0.80609338    -0.20700
C3757       C  0.95596008  0.21241499  0.80357683    -0.08700
C3758       C  0.96849748  0.19338971  0.81453062     0.30100
F3759       F  0.99279453  0.19150951  0.81225459    -0.19300
H3760       H  0.96603314  0.16106429  0.83521448     0.18500
H3761       H  0.92086557  0.22793139  0.79730203     0.18500
F3762       F  0.89391706  0.19676895  0.81954896    -0.19300
C3763       C  0.85117247  0.19071645  0.93655928    -0.20700
C3764       C  0.84381439  0.18176937  0.91402131    -0.08700
C3765       C  0.82615908  0.19394079  0.90080512     0.30100
C3766       C  0.81542817  0.21456775  0.91041807    -0.20700
C3767       C  0.82224514  0.22341926  0.93334507    -0.08700
C3768       C  0.84062887  0.21143296  0.94618197     0.30100
F3769       F  0.84799807  0.21920459  0.96833193    -0.19300
H3770       H  0.86521508  0.18167595  0.94659718     0.18500
H3771       H  0.80114285  0.22306061  0.90024901     0.18500
F3772       F  0.81916357  0.18565851  0.87871367    -0.19300
C3773       C  0.56309456  0.95555528  0.90413144    -0.20700
C3774       C  0.57801308  0.93788508  0.91415666    -0.08700
C3775       C  0.57347173  0.92983230  0.93755225     0.30100
C3776       C  0.55492633  0.94008392  0.95110456    -0.20700
C3777       C  0.54042738  0.95832911  0.94145811    -0.08700
C3778       C  0.54449178  0.96585416  0.91774537     0.30100
F3779       F  0.53173109  0.98442075  0.90849689    -0.19300
H3780       H  0.56625327  0.96171993  0.88598348     0.18500
H3781       H  0.55260364  0.93462163  0.96962040     0.18500
F3782       F  0.58730599  0.91233812  0.94736190    -0.19300
C3783       C  0.57125765  0.82580585  0.83570906    -0.20700
C3784       C  0.57871492  0.84798035  0.82642129    -0.08700
C3785       C  0.56666913  0.85743318  0.80641634     0.30100
C3786       C  0.54724078  0.84488215  0.79590522    -0.20700
C3787       C  0.53946471  0.82263252  0.80517084    -0.08700
C3788       C  0.55188926  0.81314156  0.82522026     0.30100
F3789       F  0.54583993  0.79136755  0.83440123    -0.19300
H3790       H  0.58039868  0.81840805  0.85123760     0.18500
H3791       H  0.53852930  0.85245371  0.78023201     0.18500
F3792       F  0.57379691  0.87879716  0.79706055    -0.19300
C3793       C  0.83147761  0.58398554  0.79985760    -0.20700
C3794       C  0.82350174  0.58793026  0.82342374    -0.08700
C3795       C  0.80625854  0.57231532  0.83333576     0.30100
C3796       C  0.79583252  0.55398261  0.81911677    -0.20700
C3797       C  0.80270326  0.55104757  0.79501092    -0.08700
C3798       C  0.82120474  0.56563276  0.78572337     0.30100
F3799       F  0.82843050  0.56283236  0.76254310    -0.19300
H3800       H  0.84538734  0.59540121  0.79235022     0.18500
H3801       H  0.78128141  0.54322461  0.82638628     0.18500
F3802       F  0.79899595  0.57538761  0.85645654    -0.19300
C3803       C  0.94642254  0.56572954  0.91883530    -0.20700
C3804       C  0.93533358  0.55042961  0.93550534    -0.08700
C3805       C  0.91060290  0.55286711  0.94008220     0.30100
C3806       C  0.89757077  0.57133811  0.92906837    -0.20700
C3807       C  0.90923582  0.58768756  0.91380597    -0.08700
C3808       C  0.93356762  0.58430494  0.90816317     0.30100
F3809       F  0.94504552  0.59948331  0.89297566    -0.19300
H3810       H  0.96563439  0.56445594  0.91557186     0.18500
H3811       H  0.87859472  0.57345875  0.93304327     0.18500
F3812       F  0.89966023  0.53887966  0.95671716    -0.19300
C3813       C  0.92967189  0.91462158  0.56148674    -0.20700
C3814       C  0.91101920  0.92553799  0.57453825    -0.08700
C3815       C  0.90321483  0.94862623  0.56815490     0.30100
C3816       C  0.91463214  0.96094356  0.54953926    -0.20700
C3817       C  0.93394510  0.95044610  0.53704558    -0.08700
C3818       C  0.94126442  0.92706161  0.54302692     0.30100
F3819       F  0.96089965  0.91712570  0.53244516    -0.19300
H3820       H  0.93572209  0.89673634  0.56615925     0.18500
H3821       H  0.90947471  0.97936672  0.54591752     0.18500
F3822       F  0.88508240  0.95947932  0.58039943    -0.19300
C3823       C  0.79933496  0.83813970  0.57534671    -0.20700
C3824       C  0.82432338  0.83506995  0.57401710    -0.08700
C3825       C  0.83409635  0.82155599  0.55486134     0.30100
C3826       C  0.81875701  0.80989588  0.53819852    -0.20700
C3827       C  0.79364920  0.81164816  0.54061623    -0.08700
C3828       C  0.78408272  0.82653631  0.55884797     0.30100
F3829       F  0.75985879  0.82897714  0.56133104    -0.19300
H3830       H  0.79163764  0.84902415  0.58965615     0.18500
H3831       H  0.82640458  0.79827897  0.52445378     0.18500
F3832       F  0.85832217  0.81883615  0.55293926    -0.19300
C3833       C  0.79783365  0.93381926  0.20270693    -0.20700
C3834       C  0.80026991  0.95899805  0.20343954    -0.08700
C3835       C  0.81549180  0.97048244  0.18695602     0.30100
C3836       C  0.82776567  0.95706767  0.16966297    -0.20700
C3837       C  0.82474807  0.93202909  0.16828520    -0.08700
C3838       C  0.81003617  0.92032947  0.18515985     0.30100
F3839       F  0.80693728  0.89603984  0.18410081    -0.19300
H3840       H  0.78557595  0.92481384  0.21481962     0.18500
H3841       H  0.83931799  0.96623050  0.15699701     0.18500
F3842       F  0.81771371  0.99487881  0.18707688    -0.19300
C3843       C  0.89926081  0.82991516  0.18755054    -0.20700
C3844       C  0.91283833  0.84553100  0.17320104    -0.08700
C3845       C  0.93638383  0.85177379  0.18027222     0.30100
C3846       C  0.94657957  0.84164327  0.20084743    -0.20700
C3847       C  0.93350063  0.82500394  0.21474350    -0.08700
C3848       C  0.90943331  0.81964266  0.20811593     0.30100
F3849       F  0.89588532  0.80406032  0.22107384    -0.19300
H3850       H  0.88072831  0.82567796  0.18272929     0.18500
H3851       H  0.96512128  0.84617762  0.20532411     0.18500
F3852       F  0.94941033  0.86780122  0.16733671    -0.19300
C3853       C  0.17257892  0.94355035  0.83586425    -0.20700
C3854       C  0.16903081  0.91888554  0.83146107    -0.08700
C3855       C  0.18679273  0.90571016  0.81916123     0.30100
C3856       C  0.20733448  0.91737665  0.81046842    -0.20700
C3857       C  0.21077730  0.94220999  0.81449573    -0.08700
C3858       C  0.19333040  0.95514929  0.82766745     0.30100
F3859       F  0.19563634  0.97927139  0.83156123    -0.19300
H3860       H  0.15936977  0.95372970  0.84598040     0.18500
H3861       H  0.22037552  0.90709880  0.80023700     0.18500
F3862       F  0.18428491  0.88154443  0.81576714    -0.19300
C3863       C  0.18400726  0.82362490  0.91233075    -0.20700
C3864       C  0.16545876  0.83698600  0.92328452    -0.08700
C3865       C  0.16622698  0.84103671  0.94823954     0.30100
C3866       C  0.18431751  0.83061601  0.96215290    -0.20700
C3867       C  0.20218370  0.81620325  0.95146854    -0.08700
C3868       C  0.20230507  0.81327254  0.92631039     0.30100
F3869       F  0.21892013  0.79897755  0.91550078    -0.19300
H3870       H  0.18395713  0.82082602  0.89298832     0.18500
H3871       H  0.18377414  0.83291189  0.98155323     0.18500
F3872       F  0.14921752  0.85474794  0.95917387    -0.19300
C3873       C  0.94537618  0.92178986  0.73324301    -0.20700
C3874       C  0.94035944  0.94603992  0.73907407    -0.08700
C3875       C  0.92288827  0.95817276  0.72519533     0.30100
C3876       C  0.91072207  0.94616502  0.70629808    -0.20700
C3877       C  0.91561186  0.92192652  0.70091456    -0.08700
C3878       C  0.93306441  0.90981586  0.71450100     0.30100
F3879       F  0.93806775  0.88632446  0.70970994    -0.19300
H3880       H  0.95857218  0.91182184  0.74349592     0.18500
H3881       H  0.89726842  0.95570784  0.69594505     0.18500
F3882       F  0.91757891  0.98163408  0.72967449    -0.19300
C3883       C  0.01851675  0.95650212  0.81911584    -0.20700
C3884       C  0.00466750  0.94456396  0.80118567    -0.08700
C3885       C  0.01048301  0.92044454  0.79523083     0.30100
C3886       C  0.02914976  0.90862172  0.80737955    -0.20700
C3887       C  0.04254038  0.92052156  0.82549021    -0.08700
C3888       C  0.03725809  0.94465328  0.83111387     0.30100
F3889       F  0.04984291  0.95654019  0.84868113    -0.19300
H3890       H  0.01468319  0.97500929  0.82411323     0.18500
H3891       H  0.03293028  0.88995925  0.80294836     0.18500
F3892       F  0.99772567  0.90789456  0.77825033    -0.19300
C3893       C  0.95363324  0.01786366  0.82492252    -0.20700
C3894       C  0.94462884  0.01021891  0.80224744    -0.08700
C3895       C  0.92515131  0.02302378  0.79211833     0.30100
C3896       C  0.91463757  0.04225367  0.80475080    -0.20700
C3897       C  0.92343904  0.04940766  0.82748678    -0.08700
C3898       C  0.94323812  0.03725601  0.83736869     0.30100
F3899       F  0.95223106  0.04391510  0.85927742    -0.19300
H3900       H  0.96857337  0.00860883  0.83331038     0.18500
H3901       H  0.89950235  0.05160594  0.79680863     0.18500
F3902       F  0.91613664  0.01709348  0.77004151    -0.19300
C3903       C  0.91020133  0.74531795  0.95041581    -0.20700
C3904       C  0.93244575  0.75353168  0.94129101    -0.08700
C3905       C  0.94214586  0.74127137  0.92112406     0.30100
C3906       C  0.92972086  0.72182559  0.91035184    -0.20700
C3907       C  0.90738743  0.71416057  0.91923161    -0.08700
C3908       C  0.89775063  0.72594550  0.93946512     0.30100
F3909       F  0.87607021  0.71899401  0.94832835    -0.19300
H3910       H  0.90212447  0.75415410  0.96584007     0.18500
H3911       H  0.93729963  0.71299842  0.89465067     0.18500
F3912       F  0.96350049  0.74808084  0.91148725    -0.19300
C3913       C  0.95014182  0.83233954  0.01993142    -0.20700
C3914       C  0.93612104  0.81676479  0.00514414    -0.08700
C3915       C  0.91179483  0.81273257  0.01145080     0.30100
C3916       C  0.90180198  0.82441150  0.03150754    -0.20700
C3917       C  0.91568998  0.84022295  0.04590681    -0.08700
C3918       C  0.94009708  0.84385571  0.04017933     0.30100
F3919       F  0.95396410  0.85914056  0.05370712    -0.19300
H3920       H  0.96889526  0.83575975  0.01573632     0.18500
H3921       H  0.88288168  0.82164815  0.03546792     0.18500
F3922       F  0.89723213  0.79828987  0.99773166    -0.19300
C3923       C  0.00942857  0.83564842  0.95085850    -0.20700
C3924       C  0.99821713  0.81487569  0.94089284    -0.08700
C3925       C  0.00797788  0.80486843  0.91953473     0.30100
C3926       C  0.02788501  0.81563605  0.90845186    -0.20700
C3927       C  0.03862498  0.83646924  0.91829683    -0.08700
C3928       C  0.02940235  0.84632667  0.93971102     0.30100
F3929       F  0.03941500  0.86660786  0.94950618    -0.19300
H3930       H  0.00257714  0.84389434  0.96718520     0.18500
H3931       H  0.03474979  0.80790733  0.89186891     0.18500
F3932       F  0.99822721  0.78487111  0.90897478    -0.19300
C3933       C  0.80115498  0.02879251  0.92057908    -0.20700
C3934       C  0.81034429  0.01927916  0.94220999    -0.08700
C3935       C  0.83210808  0.02899617  0.95163531     0.30100
C3936       C  0.84451585  0.04709019  0.93926160    -0.20700
C3937       C  0.83555998  0.05584906  0.91738080    -0.08700
C3938       C  0.81360557  0.04682262  0.90828987     0.30100
F3939       F  0.80441780  0.05520668  0.88729756    -0.19300
H3940       H  0.78443923  0.02200509  0.91280908     0.18500
H3941       H  0.86140674  0.05402109  0.94652636     0.18500
F3942       F  0.84170649  0.02086999  0.97254371    -0.19300
C3943       C  0.74101690  0.96372212  0.91551486    -0.20700
C3944       C  0.74384256  0.96019144  0.94044759    -0.08700
C3945       C  0.72616007  0.94671798  0.95261198     0.30100
C3946       C  0.70646640  0.93668562  0.93992006    -0.20700
C3947       C  0.70413434  0.93978187  0.91495326    -0.08700
C3948       C  0.72147900  0.95355639  0.90287287     0.30100
F3949       F  0.71974209  0.95674186  0.87872096    -0.19300
H3950       H  0.75429870  0.97392102  0.90559584     0.18500
H3951       H  0.69327674  0.92601091  0.94946127     0.18500
F3952       F  0.72775185  0.94337595  0.97673765    -0.19300
C3953       C  0.82835139  0.96470400  0.01472026    -0.20700
C3954       C  0.80607548  0.95653411  0.00514008    -0.08700
C3955       C  0.79531028  0.93590696  0.01536687     0.30100
C3956       C  0.80707243  0.92340996  0.03377919    -0.20700
C3957       C  0.82951257  0.93132567  0.04272179    -0.08700
C3958       C  0.83989243  0.95232672  0.03334662     0.30100
F3959       F  0.86134454  0.96068514  0.04206787    -0.19300
H3960       H  0.83711617  0.98056539  0.00760080     0.18500
H3961       H  0.79864677  0.90746627  0.04114500     0.18500
F3962       F  0.77350086  0.92758409  0.00760661    -0.19300
C3963       C  0.79859958  0.72480628  0.83747166    -0.20700
C3964       C  0.81942453  0.71403052  0.82820778    -0.08700
C3965       C  0.82909557  0.72253818  0.80660653     0.30100
C3966       C  0.81849566  0.74204311  0.79486531    -0.20700
C3967       C  0.79796418  0.75350371  0.80438208    -0.08700
C3968       C  0.78783735  0.74425778  0.82570540     0.30100
F3969       F  0.76776131  0.75410190  0.83549895    -0.19300
H3970       H  0.79091890  0.71836816  0.85410567     0.18500
H3971       H  0.82674790  0.74844841  0.77850389     0.18500
F3972       F  0.84923729  0.71238452  0.79726194    -0.19300
C3973       C  0.73167750  0.81448197  0.82590670    -0.20700
C3974       C  0.74109029  0.82213822  0.80371563    -0.08700
C3975       C  0.73163256  0.84331637  0.79346520     0.30100
C3976       C  0.71360773  0.85640631  0.80530004    -0.20700
C3977       C  0.70448988  0.84869583  0.82741220    -0.08700
C3978       C  0.71355738  0.82753901  0.83758812     0.30100
F3979       F  0.70501882  0.81967315  0.85897962    -0.19300
H3980       H  0.73840476  0.79837836  0.83440688     0.18500
H3981       H  0.70667923  0.87264150  0.79718366     0.18500
F3982       F  0.73970087  0.85154781  0.77204939    -0.19300
C3983       C  0.82570923  0.80619745  0.73386735    -0.20700
C3984       C  0.80182191  0.81301263  0.73893033    -0.08700
C3985       C  0.79023909  0.82914458  0.72321169     0.30100
C3986       C  0.80257686  0.83857638  0.70341133    -0.20700
C3987       C  0.82666621  0.83234077  0.69903547    -0.08700
C3988       C  0.83806351  0.81587976  0.71427461     0.30100
F3989       F  0.86144065  0.80980830  0.71062213    -0.19300
H3990       H  0.83519715  0.79393119  0.74557348     0.18500
H3991       H  0.79359169  0.85138583  0.69188992     0.18500
F3992       F  0.76708448  0.83595809  0.72697752    -0.19300
C3993       C  0.43928375  0.17780314  0.18295360    -0.20700
C3994       C  0.44680212  0.20149716  0.17819935    -0.08700
C3995       C  0.43215804  0.21591551  0.16327302     0.30100
C3996       C  0.41096199  0.20653205  0.15293478    -0.20700
C3997       C  0.40391831  0.18273352  0.15731122    -0.08700
C3998       C  0.41812931  0.16844956  0.17249888     0.30100
F3999       F  0.41171833  0.14523920  0.17675769    -0.19300
H4000       H  0.44979252  0.16649492  0.19477474     0.18500
H4001       H  0.40032302  0.21762770  0.14101969     0.18500
F4002       F  0.43789336  0.23931552  0.15913098    -0.19300
C4003       C  0.54551207  0.33064853  0.30070290    -0.20700
C4004       C  0.54915877  0.30586374  0.29724712    -0.08700
C4005       C  0.56956401  0.29505095  0.30779800     0.30100
C4006       C  0.58618716  0.30882109  0.32102888    -0.20700
C4007       C  0.58324892  0.33374943  0.32362717    -0.08700
C4008       C  0.56254931  0.34459059  0.31359325     0.30100
F4009       F  0.55899164  0.36868459  0.31606080    -0.19300
H4010       H  0.53011127  0.33936199  0.29254107     0.18500
H4011       H  0.60157561  0.30001781  0.32912972     0.18500
F4012       F  0.57360900  0.27104919  0.30509238    -0.19300
C4013       C  0.53486823  0.16922589  0.29392894    -0.20700
C4014       C  0.54945231  0.18684917  0.28301285    -0.08700
C4015       C  0.57180033  0.19295102  0.29392644     0.30100
C4016       C  0.57878059  0.18225364  0.31549373    -0.20700
C4017       C  0.56377874  0.16537362  0.32662047    -0.08700
C4018       C  0.54194688  0.15858175  0.31553284     0.30100
F4019       F  0.52774690  0.14136609  0.32541750    -0.19300
H4020       H  0.51753389  0.16421465  0.28619653     0.18500
H4021       H  0.59609362  0.18696559  0.32348974     0.18500
F4022       F  0.58671037  0.20968080  0.28421092    -0.19300
C4023       C  0.56087006  0.29252324  0.15442533    -0.20700
C4024       C  0.56557648  0.28829518  0.17889324    -0.08700
C4025       C  0.58180409  0.30363107  0.19155614     0.30100
C4026       C  0.59209379  0.32339420  0.18013749    -0.20700
C4027       C  0.58644061  0.32806585  0.15608202    -0.08700
C4028       C  0.57133730  0.31221849  0.14303434     0.30100
F4029       F  0.56608312  0.31635702  0.11953891    -0.19300
H4030       H  0.54823756  0.28120000  0.14442243     0.18500
H4031       H  0.60402818  0.33542604  0.19017985     0.18500
F4032       F  0.58618438  0.30081149  0.21544898    -0.19300
C4033       C  0.45198178  0.34176474  0.20124735    -0.20700
C4034       C  0.44754578  0.31682580  0.20082426    -0.08700
C4035       C  0.43104388  0.30708074  0.18392036     0.30100
C4036       C  0.41991090  0.32178627  0.16712398    -0.20700
C4037       C  0.42499169  0.34648899  0.16682578    -0.08700
C4038       C  0.44061123  0.35662801  0.18436373     0.30100
F4039       F  0.44534585  0.38066702  0.18462260    -0.19300
H4040       H  0.46511702  0.34946379  0.21370985     0.18500
H4041       H  0.40745800  0.31387081  0.15408880     0.18500
F4042       F  0.42652697  0.28300673  0.18301980    -0.19300
C4043       C  0.42517938  0.20279150  0.28505343    -0.20700
C4044       C  0.44092231  0.22028133  0.29503444    -0.08700
C4045       C  0.44555708  0.22035806  0.31990677     0.30100
C4046       C  0.43557430  0.20231957  0.33429052    -0.20700
C4047       C  0.42108285  0.18402737  0.32391415    -0.08700
C4048       C  0.41531356  0.18481048  0.29934065     0.30100
F4049       F  0.40061035  0.16782796  0.28912652    -0.19300
H4050       H  0.42177451  0.20218436  0.26580571     0.18500
H4051       H  0.43969431  0.20214259  0.35338372     0.18500
F4052       F  0.46136805  0.23647188  0.32983088    -0.19300
C4053       C  0.53767354  0.44734181  0.40842798    -0.20700
C4054       C  0.52822043  0.43981419  0.43056579    -0.08700
C4055       C  0.54047414  0.42153231  0.44324901     0.30100
C4056       C  0.56199001  0.41191875  0.43437202    -0.20700
C4057       C  0.57152548  0.41989016  0.41256372    -0.08700
C4058       C  0.55894793  0.43728659  0.39937306     0.30100
F4059       F  0.56736036  0.44459063  0.37774358    -0.19300
H4060       H  0.52885858  0.46140219  0.39833627     0.18500
H4061       H  0.57116123  0.39803797  0.44441312     0.18500
F4062       F  0.53236195  0.41359972  0.46478997    -0.19300
C4063       C  0.45194145  0.57841406  0.55588983    -0.20700
C4064       C  0.44979105  0.55326482  0.55406266    -0.08700
C4065       C  0.43273350  0.54115524  0.56823171     0.30100
C4066       C  0.41707316  0.55409376  0.58291086    -0.20700
C4067       C  0.41796591  0.57929435  0.58342034    -0.08700
C4068       C  0.43602092  0.59144660  0.57052328     0.30100
F4069       F  0.43716094  0.61590163  0.57090043    -0.19300
H4070       H  0.46466195  0.58800058  0.54472757     0.18500
H4071       H  0.40338871  0.54454963  0.59294572     0.18500
F4072       F  0.43021421  0.51681373  0.56660312    -0.19300
C4073       C  0.43810349  0.55672231  0.40747532    -0.20700
C4074       C  0.42665831  0.54743558  0.42800312    -0.08700
C4075       C  0.40581142  0.55919280  0.43660596     0.30100
C4076       C  0.39700875  0.57967965  0.42505511    -0.20700
C4077       C  0.40881531  0.58903589  0.40495014    -0.08700
C4078       C  0.42936864  0.57734863  0.39613416     0.30100
F4079       F  0.44080730  0.58578407  0.37638774    -0.19300
H4080       H  0.45434300  0.54847568  0.40056770     0.18500
H4081       H  0.38085093  0.58827513  0.43175594     0.18500
F4082       F  0.39410502  0.55126770  0.45642367    -0.19300
C4083       C  0.43018999  0.42089752  0.53958304    -0.20700
C4084       C  0.42188339  0.44340565  0.53160688    -0.08700
C4085       C  0.40328549  0.45489218  0.54457682     0.30100
C4086       C  0.39399486  0.44443143  0.56536914    -0.20700
C4087       C  0.40292293  0.42241199  0.57352824    -0.08700
C4088       C  0.42077653  0.41046878  0.56030011     0.30100
F4089       F  0.42925746  0.38883221  0.56761988    -0.19300
H4090       H  0.44458180  0.41166383  0.53022839     0.18500
H4091       H  0.37976122  0.45347499  0.57514892     0.18500
F4092       F  0.39474536  0.47670694  0.53789181    -0.19300
C4093       C  0.57633971  0.56962527  0.42963604    -0.20700
C4094       C  0.56436190  0.58607728  0.41482191    -0.08700
C4095       C  0.53989024  0.59092136  0.41854207     0.30100
C4096       C  0.52716879  0.57823607  0.43592738    -0.20700
C4097       C  0.53881737  0.56092897  0.45002768    -0.08700
C4098       C  0.56361261  0.55700776  0.44717604     0.30100
F4099       F  0.57498658  0.53966996  0.45993101    -0.19300
H4100       H  0.59531294  0.56596552  0.42696698     0.18500
H4101       H  0.50791516  0.58102029  0.43759963     0.18500
F4102       F  0.52822458  0.60728972  0.40479620    -0.19300
C4103       C  0.55561914  0.43954038  0.53068797    -0.20700
C4104       C  0.54376480  0.45928878  0.54123473    -0.08700
C4105       C  0.54455033  0.46265154  0.56629524     0.30100
C4106       C  0.55620154  0.44573551  0.58064701    -0.20700
C4107       C  0.56713608  0.42546407  0.57007491    -0.08700
C4108       C  0.56734012  0.42277437  0.54496073     0.30100
F4109       F  0.57835567  0.40364033  0.53435331    -0.19300
H4110       H  0.55488194  0.43658273  0.51136062     0.18500
H4111       H  0.55618383  0.44803487  0.60005091     0.18500
F4112       F  0.53251627  0.48110132  0.57694051    -0.19300
loop_ 
_geom_bond_atom_site_label_1 
_geom_bond_atom_site_label_2 
_geom_bond_distance 
_geom_bond_site_symmetry_2 
_ccdc_geom_bond_type 
O1           C17   1.278       .  A
O1           Zn7   2.045       .  S
C2           O18   1.279       .  A
C2           O15   1.275       .  A
C2         C4074   1.491       .  S
O3           C16   1.277       .  A
O3          Cd10   2.095       .  S
O4           C22   1.268       .  A
O4          Cd13   2.020       .  S
O5           C19   1.273       .  A
O5           Cd9   2.049       .  S
O6           C17   1.272       .  A
O6           Cd9   2.049       .  S
Zn7          O18   2.035       .  S
Zn7          O20   1.961       .  S
Zn7          O12   1.920       .  S
O8           C19   1.275       .  A
O8          Cd13   2.070       .  S
Cd9          O11   2.008       .  S
Cd9          O12   1.971       .  S
Cd10         O14   2.096       .  S
Cd10         O23   2.101       .  S
Cd10         O12   2.034       .  S
O11          C21   1.266       .  A
O12         Cd13   1.972       .  S
Cd13         O15   2.063       .  S
O14          C21   1.277       .  A
C16          O20   1.267       .  A
C16        C4097   1.461       .  S
C17        C4054   1.489       .  S
C19        C4084   1.484       .  S
C21        C4104   1.461       .  S
C22          O23   1.277       .  A
C22        C4064   1.466       .  S
O24          C40   1.274       .  A
O24         Zn30   2.019       .  S
C25          O41   1.275       .  A
C25          O38   1.272       .  A
C25        C4014   1.485       .  S
O26          C39   1.280       .  A
O26         Cd33   2.117       .  S
O27          C45   1.267       .  A
O27         Cd36   2.016       .  S
O28          C42   1.274       .  A
O28         Cd32   2.048       .  S
O29          C40   1.272       .  A
O29         Cd32   2.051       .  S
Zn30         O41   2.016       .  S
Zn30         O43   1.929       .  S
Zn30         O35   1.919       .  S
O31          C42   1.273       .  A
O31         Cd36   2.048       .  S
Cd32         O34   2.010       .  S
Cd32         O35   1.965       .  S
Cd33         O37   2.121       .  S
Cd33         O46   2.120       .  S
Cd33         O35   2.040       .  S
O34          C44   1.266       .  A
O35         Cd36   1.971       .  S
Cd36         O38   2.049       .  S
O37          C44   1.280       .  A
C39          O43   1.264       .  A
C39        C4044   1.466       .  S
C40        C3994   1.483       .  S
C42        C4024   1.471       .  S
C44        C4034   1.468       .  S
C45          O46   1.281       .  A
C45        C4004   1.477       .  S
C47        C3967   1.496       .  S
C47          N48   1.361       .  A
C47          N52   1.361       .  A
N48          C49   1.362       .  A
C49        C3974   1.496       .  S
C49          N50   1.362       .  A
N50          C51   1.361       .  A
C51        C3984   1.492       .  S
C51          N52   1.361       .  A
C53        C3944   1.488       .  S
C53          N54   1.357       .  A
C53          N58   1.362       .  A
N54          C55   1.358       .  A
C55        C3934   1.494   1_565  S
C55          N56   1.361       .  A
N56          C57   1.364       .  A
C57        C3954   1.497   1_556  S
C57          N58   1.364       .  A
C59        C3914   1.497   1_556  S
C59          N60   1.364       .  A
C59          N64   1.362       .  A
N60          C61   1.365       .  A
C61        C3924   1.500       .  S
C61          N62   1.362       .  A
N62          C63   1.361       .  A
C63        C3904   1.499       .  S
C63          N64   1.361       .  A
C65        C3874   1.493       .  S
C65          N66   1.362       .  A
C65          N70   1.360       .  A
N66          C67   1.363       .  A
C67        C3894   1.496   1_565  S
C67          N68   1.362       .  A
N68          C69   1.361       .  A
C69        C3884   1.494   1_655  S
C69          N70   1.359       .  A
N71          C76   1.357       .  A
N71          C75   1.356       .  A
N71         H103   1.020       .  S
N72          C79   1.353       .  A
N72          C80   1.354       .  A
N73          C78   1.352       .  A
N73          C77   1.353       .  A
N73         H104   1.029       .  S
N74          C81   1.353       .  A
N74          C82   1.352       .  A
C75          C83   1.388       .  A
C75          C91   1.423       .  A
C76          C92   1.423       .  A
C76          C84   1.388       .  A
C77          C85   1.387       .  A
C77          C94   1.410       .  A
C78          C93   1.411       .  A
C78          C86   1.388       .  A
C79          C91   1.421       .  A
C79          C87   1.387       .  A
C80          C94   1.419       .  A
C80          C88   1.386       .  A
C81          C89   1.387       .  A
C81          C92   1.419       .  A
C82          C90   1.386       .  A
C82          C93   1.416       .  A
C83          C84   1.376       .  A
C83          H95   1.082       .  S
C84          H96   1.082       .  S
C85          C86   1.367       .  A
C85          H97   1.082       .  S
C86          H98   1.082       .  S
C87          C88   1.376       .  A
C87          H99   1.082       .  S
C88         H100   1.082       .  S
C89          C90   1.377       .  A
C89         H101   1.082       .  S
C90         H102   1.082       .  S
C91        C3927   1.491       .  S
C92        C3887   1.492       .  S
C93        C3854   1.482       .  S
C94        C3864   1.489       .  S
N105        C110   1.356       .  A
N105        C109   1.357       .  A
N105        H137   1.033       .  S
N106        C113   1.352       .  A
N106        C114   1.352       .  A
N107        C112   1.351       .  A
N107        C111   1.352       .  A
N107        H138   1.037       .  S
N108        C115   1.354       .  A
N108        C116   1.354       .  A
C109        C117   1.387       .  A
C109        C125   1.423       .  A
C110        C126   1.423       .  A
C110        C118   1.388       .  A
C111        C119   1.387       .  A
C111        C128   1.410       .  A
C112        C127   1.411       .  A
C112        C120   1.388       .  A
C113        C125   1.417       .  A
C113        C121   1.387       .  A
C114        C128   1.414       .  A
C114        C122   1.385       .  A
C115        C123   1.387       .  A
C115        C126   1.421       .  A
C116        C124   1.386       .  A
C116        C127   1.418       .  A
C117        C118   1.376       .  A
C117        H129   1.082       .  S
C118        H130   1.082       .  S
C119        C120   1.370       .  A
C119        H131   1.082       .  S
C120        H132   1.082       .  S
C121        C122   1.372       .  A
C121        H133   1.082       .  S
C122        H134   1.082       .  S
C123        C124   1.378       .  A
C123        H135   1.082       .  S
C124        H136   1.082       .  S
C125       C3957   1.492       .  S
C126       C3917   1.496       .  S
C127       C3844   1.483       .  S
C128       C3837   1.483       .  S
N139        C144   1.354       .  A
N139        C143   1.356       .  A
N139        H171   1.035       .  S
N140        C147   1.353       .  A
N140        C148   1.351       .  A
N141        C146   1.352       .  A
N141        C145   1.352       .  A
N141        H172   1.036       .  S
N142        C149   1.353       .  A
N142        C150   1.354       .  A
C143        C151   1.388       .  A
C143        C159   1.420       .  A
C144        C160   1.419       .  A
C144        C152   1.387       .  A
C145        C153   1.388       .  A
C145        C162   1.413       .  A
C146        C161   1.411       .  A
C146        C154   1.387       .  A
C147        C159   1.416       .  A
C147        C155   1.385       .  A
C148        C162   1.417       .  A
C148        C156   1.387       .  A
C149        C157   1.387       .  A
C149        C160   1.418       .  A
C150        C158   1.385       .  A
C150        C161   1.417       .  A
C151        C152   1.375       .  A
C151        H163   1.082       .  S
C152        H164   1.082       .  S
C153        C154   1.371       .  A
C153        H165   1.082       .  S
C154        H166   1.082       .  S
C155        C156   1.375       .  A
C155        H167   1.082       .  S
C156        H168   1.083       .  S
C157        C158   1.375       .  A
C157        H169   1.082       .  S
C158        H170   1.082       .  S
C159       C3987   1.492       .  S
C160       C3877   1.489       .  S
C161       C3814   1.485       .  S
C162       C3824   1.483       .  S
N173        C178   1.356       .  A
N173        C177   1.356       .  A
N173        H205   1.032       .  S
N174        C181   1.354       .  A
N174        C182   1.354       .  A
N175        C180   1.350       .  A
N175        C179   1.350       .  A
N175        H206   1.034       .  S
N176        C183   1.353       .  A
N176        C184   1.353       .  A
C177        C185   1.388       .  A
C177        C193   1.423       .  A
C178        C194   1.423       .  A
C178        C186   1.388       .  A
C179        C187   1.388       .  A
C179        C196   1.411       .  A
C180        C195   1.410       .  A
C180        C188   1.388       .  A
C181        C193   1.420       .  A
C181        C189   1.387       .  A
C182        C196   1.419       .  A
C182        C190   1.386       .  A
C183        C191   1.387       .  A
C183        C194   1.418       .  A
C184        C192   1.386       .  A
C184        C195   1.417       .  A
C185        C186   1.375       .  A
C185        H197   1.082       .  S
C186        H198   1.082       .  S
C187        C188   1.368       .  A
C187        H199   1.082       .  S
C188        H200   1.082       .  S
C189        C190   1.376       .  A
C189        H201   1.082       .  S
C190        H202   1.082       .  S
C191        C192   1.375       .  A
C191        H203   1.082       .  S
C192        H204   1.082       .  S
C193       C3907   1.493       .  S
C194       C3964   1.491       .  S
C195       C3794   1.479       .  S
C196       C3807   1.482       .  S
N207        C212   1.356       .  A
N207        C211   1.354       .  A
N207        H239   1.037       .  S
N208        C215   1.352       .  A
N208        C216   1.353       .  A
N209        C214   1.353       .  A
N209        C213   1.353       .  A
N209        H240   1.036       .  S
N210        C217   1.352       .  A
N210        C218   1.352       .  A
C211        C219   1.388       .  A
C211        C227   1.419       .  A
C212        C228   1.419       .  A
C212        C220   1.387       .  A
C213        C221   1.387       .  A
C213        C230   1.414       .  A
C214        C229   1.413       .  A
C214        C222   1.387       .  A
C215        C227   1.417       .  A
C215        C223   1.387       .  A
C216        C230   1.417       .  A
C216        C224   1.386       .  A
C217        C225   1.387       .  A
C217        C228   1.415       .  A
C218        C226   1.385       .  A
C218        C229   1.413       .  A
C219        C220   1.375       .  A
C219        H231   1.082       .  S
C220        H232   1.082       .  S
C221        C222   1.372       .  A
C221        H233   1.082       .  S
C222        H234   1.082       .  S
C223        C224   1.377       .  A
C223        H235   1.082       .  S
C224        H236   1.082       .  S
C225        C226   1.375       .  A
C225        H237   1.082       .  S
C226        H238   1.082       .  S
C227       C3947   1.491       .  S
C228       C3977   1.490       .  S
C229       C3784   1.483       .  S
C230       C3774   1.486       .  S
N241        C246   1.355       .  A
N241        C245   1.357       .  A
N241        H273   1.033       .  S
N242        C249   1.350       .  A
N242        C250   1.350       .  A
N243        C248   1.350       .  A
N243        C247   1.349       .  A
N243        H274   1.038       .  S
N244        C251   1.353       .  A
N244        C252   1.354       .  A
C245        C253   1.387       .  A
C245        C261   1.423       .  A
C246        C262   1.424       .  A
C246        C254   1.388       .  A
C247        C255   1.387       .  A
C247        C264   1.407       .  A
C248        C263   1.408       .  A
C248        C256   1.386       .  A
C249        C261   1.415       .  A
C249        C257   1.388       .  A
C250        C264   1.411       .  A
C250        C258   1.385       .  A
C251        C259   1.388       .  A
C251        C262   1.420       .  A
C252        C260   1.385       .  A
C252        C263   1.418       .  A
C253        C254   1.376       .  A
C253        H265   1.082       .  S
C254        H266   1.082       .  S
C255        C256   1.370       .  A
C255        H267   1.082       .  S
C256        H268   1.082       .  S
C257        C258   1.375       .  A
C257        H269   1.082       .  S
C258        H270   1.082       .  S
C259        C260   1.375       .  A
C259        H271   1.082       .  S
C260        H272   1.082       .  S
C261       C3937   1.489       .  S
C262       C3897   1.492       .  S
C263       C3754   1.490       .  S
C264       C3764   1.474       .  S
O275        C291   1.274       .  A
O275       Zn281   2.002       .  S
C276        O292   1.275       .  A
C276        O289   1.270       .  A
C276       C3737   1.477       .  S
O277        C290   1.280       .  A
O277       Cd284   2.118       .  S
O278        C296   1.266       .  A
O278       Cd287   2.003       .  S
O279        C293   1.274       .  A
O279       Cd283   2.064       .  S
O280        C291   1.274       .  A
O280       Cd283   2.051       .  S
Zn281       O292   2.016       .  S
Zn281       O294   1.967       .  S
Zn281       O286   1.923       .  S
O282        C293   1.271       .  A
O282       Cd287   2.048       .  S
Cd283       O285   2.008       .  S
Cd283       O286   1.963       .  S
Cd284       O288   2.114       .  S
Cd284       O297   2.113       .  S
Cd284       O286   2.032       .  S
O285        C295   1.267       .  A
O286       Cd287   1.959       .  S
Cd287       O289   2.029       .  S
O288        C295   1.280       .  A
C290        O294   1.266       .  A
C290       C3714   1.471       .  S
C291       C3704   1.481       .  S
C293       C3694   1.477       .  S
C295       C3744   1.466       .  S
C296        O297   1.280       .  A
C296       C3724   1.468       .  S
O298        C314   1.272       .  A
O298       Zn304   1.988       .  S
C299        O315   1.271       .  A
C299        O312   1.272       .  A
C299       C3637   1.473       .  S
O300        C313   1.279       .  A
O300       Cd307   2.119       .  S
O301        C319   1.266       .  A
O301       Cd310   2.006       .  S
O302        C316   1.274       .  A
O302       Cd306   2.069       .  S
O303        C314   1.275       .  A
O303       Cd306   2.066       .  S
Zn304       O315   1.994       .  S
Zn304       O317   1.952       .  S
Zn304       O309   1.904       .  S
O305        C316   1.272       .  A
O305       Cd310   2.048       .  S
Cd306       O308   2.017       .  S
Cd306       O309   1.979       .  S
Cd307       O311   2.101       .  S
Cd307       O320   2.123       .  S
Cd307       O309   2.031       .  S
O308        C318   1.268       .  A
O309       Cd310   1.965       .  S
Cd310       O312   2.047       .  S
O311        C318   1.279       .  A
C313        O317   1.266       .  A
C313       C3677   1.472       .  S
C314       C3644   1.479       .  S
C316       C3684   1.481       .  S
C318       C3657   1.464       .  S
C319        O320   1.281       .  A
C319       C3667   1.468       .  S
O321        C337   1.273       .  A
O321       Zn327   2.014       .  S
C322        O338   1.275       .  A
C322        O335   1.276       .  A
C322       C3604   1.485       .  S
O323        C336   1.279       .  A
O323       Cd330   2.112       .  S
O324        C342   1.268       .  A
O324       Cd333   2.017       .  S
O325        C339   1.275       .  A
O325       Cd329   2.065       .  S
O326        C337   1.274       .  A
O326       Cd329   2.065       .  S
Zn327       O338   2.011       .  S
Zn327       O340   1.946       .  S
Zn327       O332   1.910       .  S
O328        C339   1.274       .  A
O328       Cd333   2.065       .  S
Cd329       O331   2.001       .  S
Cd329       O332   1.974       .  S
Cd330       O334   2.116       .  S
Cd330       O343   2.118       .  S
Cd330       O332   2.038       .  S
O331        C341   1.266       .  A
O332       Cd333   1.964       .  S
Cd333       O335   2.064       .  S
O334        C341   1.281       .  A
C336        O340   1.265       .  A
C336       C3614   1.466       .  S
C337       C3787   1.488       .  S
C339       C3594   1.483       .  S
C341       C3624   1.466       .  S
C342        O343   1.280       .  A
C342       C3584   1.474       .  S
O344        C360   1.270       .  A
O344       Zn350   1.995   1_556  S
C345        O361   1.271       .  A
C345        O358   1.275       .  A
C345       C3537   1.476       .  S
O346        C359   1.280       .  A
O346       Cd353   2.118       .  S
O347        C365   1.269       .  A
O347       Cd356   2.023       .  S
O348        C362   1.271       .  A
O348       Cd352   2.040       .  S
O349        C360   1.271       .  A
O349       Cd352   2.036   1_556  S
Zn350       O361   1.982       .  S
Zn350       O363   1.949   1_554  S
Zn350       O355   1.904       .  S
O351        C362   1.273       .  A
O351       Cd356   2.055       .  S
Cd352       O354   2.016   1_554  S
Cd352       O355   1.963       .  S
Cd353       O357   2.128       .  S
Cd353       O366   2.121   1_556  S
Cd353       O355   2.022   1_556  S
O354        C364   1.267       .  A
O355       Cd356   1.967       .  S
Cd356       O358   2.065       .  S
O357        C364   1.282       .  A
C359        O363   1.266       .  A
C359       C3867   1.473       .  S
C360       C3544   1.476       .  S
C362       C3567   1.471       .  S
C364       C3557   1.472       .  S
C365        O366   1.282       .  A
C365       C3577   1.467       .  S
O367        C383   1.273       .  A
O367       Zn373   2.004   1_455  S
C368        O384   1.273       .  A
C368        O381   1.275       .  A
C368       C3504   1.484       .  S
O369        C382   1.281       .  A
O369       Cd376   2.127   1_554  S
O370        C388   1.266       .  A
O370       Cd379   2.000       .  S
O371        C385   1.274       .  A
O371       Cd375   2.052       .  S
O372        C383   1.273       .  A
O372       Cd375   2.049   1_554  S
Zn373       O384   2.001       .  S
Zn373       O386   1.940       .  S
Zn373       O378   1.911   1_554  S
O374        C385   1.275       .  A
O374       Cd379   2.070   1_455  S
Cd375       O377   2.006       .  S
Cd375       O378   1.957   1_455  S
Cd376       O380   2.126       .  S
Cd376       O389   2.118       .  S
Cd376       O378   2.038       .  S
O377        C387   1.265       .  A
O378       Cd379   1.967       .  S
Cd379       O381   2.068   1_556  S
O380        C387   1.282   1_655  A
C382        O386   1.264       .  A
C382       C3527   1.472       .  S
C383       C3487   1.484       .  S
C385       C3494   1.481       .  S
C387       C3514   1.471       .  S
C388        O389   1.281       .  A
C388       C3804   1.463       .  S
O390        C406   1.272       .  A
O390       Zn396   1.990       .  S
C391        O407   1.273       .  A
C391        O404   1.274       .  A
C391       C3464   1.485       .  S
O392        C405   1.272       .  A
O392       Cd399   2.078       .  S
O393        C411   1.267       .  A
O393       Cd402   2.015       .  S
O394        C408   1.276       .  A
O394       Cd398   2.064   1_565  S
O395        C406   1.276       .  A
O395       Cd398   2.059       .  S
Zn396       O407   2.012   1_545  S
Zn396       O409   1.932       .  S
Zn396       O401   1.899   1_545  S
O397        C408   1.275       .  A
O397       Cd402   2.058       .  S
Cd398       O400   2.030       .  S
Cd398       O401   1.969   1_545  S
Cd399       O403   2.077       .  S
Cd399       O412   2.069   1_545  S
Cd399       O401   2.026   1_545  S
O400        C410   1.269       .  A
O401       Cd402   1.964       .  S
Cd402       O404   2.061       .  S
O403        C410   1.274       .  A
C405        O409   1.264       .  A
C405       C3454   1.450       .  S
C406       C3474   1.480       .  S
C408       C3857   1.476       .  S
C410       C3434   1.465       .  S
C411        O412   1.274       .  A
C411       C3447   1.453       .  S
O413        C429   1.271       .  A
O413       Zn419   1.994       .  S
C414        O430   1.269       .  A
C414        O427   1.277       .  A
C414       C3404   1.479       .  S
O415        C428   1.277       .  A
O415       Cd422   2.103       .  S
O416        C434   1.268       .  A
O416       Cd425   2.021       .  S
O417        C431   1.275       .  A
O417       Cd421   2.060       .  S
O418        C429   1.275       .  A
O418       Cd421   2.066       .  S
Zn419       O430   1.968       .  S
Zn419       O432   1.946       .  S
Zn419       O424   1.895       .  S
O420        C431   1.277       .  A
O420       Cd425   2.078       .  S
Cd421       O423   2.008       .  S
Cd421       O424   1.968       .  S
Cd422       O426   2.090       .  S
Cd422       O435   2.101       .  S
Cd422       O424   2.026       .  S
O423        C433   1.267       .  A
O424       Cd425   1.971       .  S
Cd425       O427   2.069       .  S
O426        C433   1.278       .  A
C428        O432   1.265       .  A
C428       C3394   1.462       .  S
C429       C3414   1.483       .  S
C431       C3424   1.488       .  S
C433       C3384   1.463       .  S
C434        O435   1.278       .  A
C434       C3827   1.469       .  S
O436        C452   1.274       .  A
O436       Zn442   2.014   1_455  S
C437        O453   1.273       .  A
C437        O450   1.276       .  A
C437       C3344   1.480       .  S
O438        C451   1.276       .  A
O438       Cd445   2.096       .  S
O439        C457   1.268       .  A
O439       Cd448   2.027       .  S
O440        C454   1.272       .  A
O440       Cd444   2.049       .  S
O441        C452   1.271       .  A
O441       Cd444   2.046   1_455  S
Zn442       O453   1.998       .  S
Zn442       O455   1.960   1_655  S
Zn442       O447   1.912       .  S
O443        C454   1.274       .  A
O443       Cd448   2.068       .  S
Cd444       O446   2.006   1_655  S
Cd444       O447   1.962       .  S
Cd445       O449   2.091       .  S
Cd445       O458   2.098   1_455  S
Cd445       O447   2.027   1_455  S
O446        C456   1.267       .  A
O447       Cd448   1.976       .  S
Cd448       O450   2.058       .  S
O449        C456   1.277       .  A
C451        O455   1.267       .  A
C451       C3377   1.459       .  S
C452       C3364   1.479       .  S
C454       C3847   1.484       .  S
C456       C3334   1.456       .  S
C457        O458   1.278       .  A
C457       C3357   1.467       .  S
O459        C475   1.274       .  A
O459       Zn465   2.019       .  S
C460        O476   1.274       .  A
C460        O473   1.272   1_565  A
C460       C3304   1.480       .  S
O461        C474   1.282       .  A
O461       Cd468   2.129       .  S
O462        C480   1.266       .  A
O462       Cd471   2.012   1_565  S
O463        C477   1.274       .  A
O463       Cd467   2.068   1_554  S
O464        C475   1.274       .  A
O464       Cd467   2.050       .  S
Zn465       O476   2.005   1_546  S
Zn465       O478   1.955   1_545  S
Zn465       O470   1.916   1_556  S
O466        C477   1.272       .  A
O466       Cd471   2.052       .  S
Cd467       O469   2.018       .  S
Cd467       O470   1.968   1_556  S
Cd468       O472   2.132   1_565  S
Cd468       O481   2.137   1_556  S
Cd468       O470   2.031   1_566  S
O469        C479   1.267       .  A
O470       Cd471   1.974       .  S
Cd471       O473   2.049       .  S
O472        C479   1.283       .  A
C474        O478   1.266       .  A
C474       C3777   1.471       .  S
C475       C3297   1.485       .  S
C477       C3284   1.482       .  S
C479       C3327   1.476       .  S
C480        O481   1.284       .  A
C480       C3314   1.471       .  S
C482       C3264   1.498       .  S
C482        N483   1.360       .  A
C482        N487   1.363       .  A
N483        C484   1.361       .  A
C484       C3257   1.494       .  S
C484        N485   1.361       .  A
N485        C486   1.362       .  A
C486       C3274   1.498       .  S
C486        N487   1.363       .  A
N488        C493   1.356       .  A
N488        C492   1.356       .  A
N488        H520   1.032       .  S
N489        C496   1.354       .  A
N489        C497   1.354       .  A
N490        C495   1.353       .  A
N490        C494   1.353       .  A
N490        H521   1.035       .  S
N491        C498   1.354       .  A
N491        C499   1.354       .  A
C492        C500   1.389       .  A
C492        C508   1.425       .  A
C493        C509   1.423       .  A
C493        C501   1.387       .  A
C494        C502   1.388       .  A
C494        C511   1.416       .  A
C495        C510   1.415       .  A
C495        C503   1.387       .  A
C496        C508   1.422       .  A
C496        C504   1.387       .  A
C497        C511   1.419       .  A
C497        C505   1.386       .  A
C498        C506   1.387       .  A
C498        C509   1.420       .  A
C499        C507   1.385       .  A
C499        C510   1.418       .  A
C500        C501   1.375       .  A
C500        H512   1.082       .  S
C501        H513   1.082       .  S
C502        C503   1.371       .  A
C502        H514   1.082       .  S
C503        H515   1.082       .  S
C504        C505   1.377       .  A
C504        H516   1.082       .  S
C505        H517   1.082       .  S
C506        C507   1.376       .  A
C506        H518   1.082       .  S
C507        H519   1.082       .  S
C508       C3267   1.495       .  S
C509       C3244   1.492       .  S
C510       C4077   1.488       .  S
C511       C3717   1.488       .  S
C522       C3217   1.493       .  S
C522        N523   1.361       .  A
C522        N527   1.362       .  A
N523        C524   1.360       .  A
C524       C3234   1.496   1_565  S
C524        N525   1.362       .  A
N525        C526   1.362       .  A
C526       C3227   1.499       .  S
C526        N527   1.363       .  A
N528        C533   1.354       .  A
N528        C532   1.354       .  A
N528        H560   1.034       .  S
N529        C536   1.351       .  A
N529        C537   1.352       .  A
N530        C535   1.348       .  A
N530        C534   1.350       .  A
N530        H561   1.036       .  S
N531        C538   1.354       .  A
N531        C539   1.352       .  A
C532        C540   1.387       .  A
C532        C548   1.418       .  A
C533        C549   1.419       .  A
C533        C541   1.387       .  A
C534        C542   1.386       .  A
C534        C551   1.407       .  A
C535        C550   1.408       .  A
C535        C543   1.388       .  A
C536        C548   1.414       .  A
C536        C544   1.387       .  A
C537        C551   1.413       .  A
C537        C545   1.386       .  A
C538        C546   1.386       .  A
C538        C549   1.417       .  A
C539        C547   1.387       .  A
C539        C550   1.418       .  A
C540        C541   1.375       .  A
C540        H552   1.082       .  S
C541        H553   1.082       .  S
C542        C543   1.371       .  A
C542        H554   1.082       .  S
C543        H555   1.082       .  S
C544        C545   1.374       .  A
C544        H556   1.082       .  S
C545        H557   1.082       .  S
C546        C547   1.375       .  A
C546        H558   1.082       .  S
C547        H559   1.082       .  S
C548       C3207   1.484       .  S
C549       C3214   1.492       .  S
C550       C3197   1.479       .  S
C551       C3397   1.478       .  S
N562        C567   1.356       .  A
N562        C566   1.358       .  A
N562        H594   1.031       .  S
N563        C570   1.354       .  A
N563        C571   1.352       .  A
N564        C569   1.355       .  A
N564        C568   1.355       .  A
N564        H595   1.034       .  S
N565        C572   1.355       .  A
N565        C573   1.355       .  A
C566        C574   1.387       .  A
C566        C582   1.425       .  A
C567        C583   1.426       .  A
C567        C575   1.389       .  A
C568        C576   1.388       .  A
C568        C585   1.418       .  A
C569        C584   1.418       .  A
C569        C577   1.387       .  A
C570        C582   1.420       .  A
C570        C578   1.386       .  A
C571        C585   1.420       .  A
C571        C579   1.387       .  A
C572        C580   1.387       .  A
C572        C583   1.424       .  A
C573        C581   1.387       .  A
C573        C584   1.424       .  A
C574        C575   1.374       .  A
C574        H586   1.082       .  S
C575        H587   1.082       .  S
C576        C577   1.368       .  A
C576        H588   1.082       .  S
C577        H589   1.082       .  S
C578        C579   1.374       .  A
C578        H590   1.082       .  S
C579        H591   1.082       .  S
C580        C581   1.376       .  A
C580        H592   1.082       .  S
C581        H593   1.082       .  S
C582       C3277   1.495       .  S
C583       C3224   1.495       .  S
C584       C3317   1.493       .  S
C585       C3574   1.487       .  S
C596       C3184   1.485       .  S
C596        N597   1.361       .  A
C596        N601   1.359       .  A
N597        C598   1.360       .  A
C598       C3174   1.493   1_565  S
C598        N599   1.362       .  A
N599        C600   1.360       .  A
C600       C3164   1.491       .  S
C600        N601   1.358       .  A
C602       C3154   1.496       .  S
C602        N603   1.360       .  A
C602        N607   1.362       .  A
N603        C604   1.360       .  A
C604       C3204   1.490       .  S
C604        N605   1.361       .  A
N605        C606   1.360       .  A
C606       C3247   1.496       .  S
C606        N607   1.363       .  A
N608        C613   1.357       .  A
N608        C612   1.356       .  A
N608        H640   1.032       .  S
N609        C616   1.352       .  A
N609        C617   1.354       .  A
N610        C615   1.351       .  A
N610        C614   1.352       .  A
N610        H641   1.036       .  S
N611        C618   1.353       .  A
N611        C619   1.353       .  A
C612        C620   1.389       .  A
C612        C628   1.425       .  A
C613        C629   1.424       .  A
C613        C621   1.387       .  A
C614        C622   1.387       .  A
C614        C631   1.412       .  A
C615        C630   1.413       .  A
C615        C623   1.388       .  A
C616        C628   1.421       .  A
C616        C624   1.388       .  A
C617        C631   1.416       .  A
C617        C625   1.384       .  A
C618        C626   1.387       .  A
C618        C629   1.420       .  A
C619        C627   1.385       .  A
C619        C630   1.417       .  A
C620        C621   1.375       .  A
C620        H632   1.082       .  S
C621        H633   1.082       .  S
C622        C623   1.368       .  A
C622        H634   1.082       .  S
C623        H635   1.082       .  S
C624        C625   1.376       .  A
C624        H636   1.082       .  S
C625        H637   1.082       .  S
C626        C627   1.377       .  A
C626        H638   1.082       .  S
C627        H639   1.082       .  S
C628       C3167   1.492       .  S
C629       C3157   1.492       .  S
C630       C3597   1.487       .  S
C631       C3467   1.486       .  S
N642        C647   1.355       .  A
N642        C646   1.354       .  A
N642        H674   1.035       .  S
N643        C650   1.353       .  A
N643        C651   1.353       .  A
N644        C649   1.351       .  A
N644        C648   1.353       .  A
N644        H675   1.038       .  S
N645        C652   1.353       .  A
N645        C653   1.352       .  A
C646        C654   1.387       .  A
C646        C662   1.419       .  A
C647        C663   1.420       .  A
C647        C655   1.388       .  A
C648        C656   1.386       .  A
C648        C665   1.409       .  A
C649        C664   1.411       .  A
C649        C657   1.388       .  A
C650        C662   1.416       .  A
C650        C658   1.386       .  A
C651        C665   1.416       .  A
C651        C659   1.386       .  A
C652        C660   1.386       .  A
C652        C663   1.418       .  A
C653        C661   1.387       .  A
C653        C664   1.417       .  A
C654        C655   1.375       .  A
C654        H666   1.082       .  S
C655        H667   1.082       .  S
C656        C657   1.371       .  A
C656        H668   1.082       .  S
C657        H669   1.082       .  S
C658        C659   1.374       .  A
C658        H670   1.082       .  S
C659        H671   1.082       .  S
C660        C661   1.377       .  A
C660        H672   1.082       .  S
C661        H673   1.083       .  S
C662       C3177   1.488       .  S
C663       C3237   1.492       .  S
C664       C4047   1.481       .  S
C665       C3674   1.486       .  S
N676        C681   1.356       .  A
N676        C680   1.353       .  A
N676        H708   1.035       .  S
N677        C684   1.350       .  A
N677        C685   1.352       .  A
N678        C683   1.348       .  A
N678        C682   1.350       .  A
N678        H709   1.037       .  S
N679        C686   1.350       .  A
N679        C687   1.351       .  A
C680        C688   1.388       .  A
C680        C696   1.419       .  A
C681        C697   1.419       .  A
C681        C689   1.387       .  A
C682        C690   1.385       .  A
C682        C699   1.405       .  A
C683        C698   1.407       .  A
C683        C691   1.388       .  A
C684        C696   1.413       .  A
C684        C692   1.387       .  A
C685        C699   1.413       .  A
C685        C693   1.385       .  A
C686        C694   1.387       .  A
C686        C697   1.414       .  A
C687        C695   1.385       .  A
C687        C698   1.412       .  A
C688        C689   1.375       .  A
C688        H700   1.082       .  S
C689        H701   1.082       .  S
C690        C691   1.370       .  A
C690        H702   1.082       .  S
C691        H703   1.082       .  S
C692        C693   1.375       .  A
C692        H704   1.082       .  S
C693        H705   1.082       .  S
C694        C695   1.377       .  A
C694        H706   1.082       .  S
C695        H707   1.082       .  S
C696       C3187   1.482       .  S
C697       C3254   1.487       .  S
C698       C3367   1.475       .  S
C699       C3147   1.481       .  S
O710        C726   1.272       .  A
O710       Zn716   1.988       .  S
C711        O727   1.270       .  A
C711        O724   1.274       .  A
C711       C3124   1.479       .  S
O712        C725   1.276       .  A
O712       Cd719   2.098       .  S
O713        C731   1.268       .  A
O713       Cd722   2.018   1_565  S
O714        C728   1.271       .  A
O714       Cd718   2.043       .  S
O715        C726   1.271       .  A
O715       Cd718   2.045       .  S
Zn716       O727   1.983   1_545  S
Zn716       O729   1.938   1_545  S
Zn716       O721   1.895       .  S
O717        C728   1.274       .  A
O717       Cd722   2.055       .  S
Cd718       O720   2.016       .  S
Cd718       O721   1.966       .  S
Cd719       O723   2.105   1_565  S
Cd719       O732   2.103       .  S
Cd719       O721   2.029   1_565  S
O720        C730   1.268       .  A
O721       Cd722   1.971       .  S
Cd722       O724   2.065   1_545  S
O723        C730   1.279       .  A
C725        O729   1.264       .  A
C725       C3194   1.460       .  S
C726       C3114   1.471       .  S
C728       C3104   1.474       .  S
C730       C3134   1.464       .  S
C731        O732   1.279       .  A
C731       C3834   1.464       .  S
O733        C749   1.271       .  A
O733       Zn739   1.984       .  S
C734        O750   1.270       .  A
C734        O747   1.276       .  A
C734       C3094   1.484       .  S
O735        C748   1.275       .  A
O735       Cd742   2.095       .  S
O736        C754   1.267       .  A
O736       Cd745   2.006   1_554  S
O737        C751   1.276       .  A
O737       Cd741   2.070       .  S
O738        C749   1.276       .  A
O738       Cd741   2.064       .  S
Zn739       O750   1.989   1_556  S
Zn739       O752   1.930   1_556  S
Zn739       O744   1.890       .  S
O740        C751   1.277       .  A
O740       Cd745   2.070       .  S
Cd741       O743   2.025       .  S
Cd741       O744   1.969       .  S
Cd742       O746   2.085   1_554  S
Cd742       O755   2.082       .  S
Cd742       O744   2.028   1_554  S
O743        C753   1.268       .  A
O744       Cd745   1.967       .  S
Cd745       O747   2.075   1_556  S
O746        C753   1.277       .  A
C748        O752   1.264       .  A
C748       C3054   1.461       .  S
C749       C3767   1.480       .  S
C751       C3084   1.490       .  S
C753       C3067   1.464       .  S
C754        O755   1.276       .  A
C754       C3077   1.459       .  S
C756       C3024   1.485       .  S
C756        N757   1.360       .  A
C756        N761   1.358       .  A
N757        C758   1.361       .  A
C758       C3044   1.492       .  S
C758        N759   1.362       .  A
N759        C760   1.361       .  A
C760       C3034   1.492       .  S
C760        N761   1.359       .  A
C762       C2994   1.489       .  S
C762        N763   1.361       .  A
C762        N767   1.356       .  A
N763        C764   1.361       .  A
C764       C3004   1.491   1_556  S
C764        N765   1.362       .  A
N765        C766   1.360       .  A
C766       C3014   1.486       .  S
C766        N767   1.356       .  A
C768       C2984   1.492       .  S
C768        N769   1.362       .  A
C768        N773   1.362       .  A
N769        C770   1.361       .  A
C770       C2964   1.501       .  S
C770        N771   1.363       .  A
N771        C772   1.364       .  A
C772       C2974   1.499       .  S
C772        N773   1.362       .  A
C774       C2944   1.496       .  S
C774        N775   1.364       .  A
C774        N779   1.363       .  A
N775        C776   1.363       .  A
C776       C2934   1.498       .  S
C776        N777   1.359       .  A
N777        C778   1.360       .  A
C778       C2954   1.495   1_556  S
C778        N779   1.361       .  A
N780        C785   1.356       .  A
N780        C784   1.356       .  A
N780        H812   1.033       .  S
N781        C788   1.354       .  A
N781        C789   1.355       .  A
N782        C787   1.352       .  A
N782        C786   1.353       .  A
N782        H813   1.034       .  S
N783        C790   1.355       .  A
N783        C791   1.354       .  A
C784        C792   1.387       .  A
C784        C800   1.422       .  A
C785        C801   1.423       .  A
C785        C793   1.388       .  A
C786        C794   1.387       .  A
C786        C803   1.413       .  A
C787        C802   1.414       .  A
C787        C795   1.388       .  A
C788        C800   1.420       .  A
C788        C796   1.387       .  A
C789        C803   1.419       .  A
C789        C797   1.386       .  A
C790        C798   1.386       .  A
C790        C801   1.421       .  A
C791        C799   1.386       .  A
C791        C802   1.420       .  A
C792        C793   1.376       .  A
C792        H804   1.082       .  S
C793        H805   1.082       .  S
C794        C795   1.370       .  A
C794        H806   1.082       .  S
C795        H807   1.082       .  S
C796        C797   1.375       .  A
C796        H808   1.082       .  S
C797        H809   1.082       .  S
C798        C799   1.378       .  A
C798        H810   1.082       .  S
C799        H811   1.083       .  S
C800       C2937   1.492       .  S
C801       C2977   1.496       .  S
C802       C3607   1.485       .  S
C803       C3554   1.490       .  S
N814        C819   1.357       .  A
N814        C818   1.353       .  A
N814        H846   1.031       .  S
N815        C822   1.351       .  A
N815        C823   1.354       .  A
N816        C821   1.351       .  A
N816        C820   1.354       .  A
N816        H847   1.036       .  S
N817        C824   1.356       .  A
N817        C825   1.354       .  A
C818        C826   1.390       .  A
C818        C834   1.423       .  A
C819        C835   1.422       .  A
C819        C827   1.386       .  A
C820        C828   1.387       .  A
C820        C837   1.413       .  A
C821        C836   1.414       .  A
C821        C829   1.388       .  A
C822        C834   1.419       .  A
C822        C830   1.388       .  A
C823        C837   1.416       .  A
C823        C831   1.385       .  A
C824        C832   1.385       .  A
C824        C835   1.420       .  A
C825        C833   1.388       .  A
C825        C836   1.423       .  A
C826        C827   1.375       .  A
C826        H838   1.082       .  S
C827        H839   1.082       .  S
C828        C829   1.369       .  A
C828        H840   1.082       .  S
C829        H841   1.082       .  S
C830        C831   1.377       .  A
C830        H842   1.082       .  S
C831        H843   1.082       .  S
C832        C833   1.375       .  A
C832        H844   1.082       .  S
C833        H845   1.082       .  S
C834       C2997   1.483       .  S
C835       C2967   1.498       .  S
C836       C2924   1.490       .  S
C837       C3087   1.488       .  S
N848        C853   1.353       .  A
N848        C852   1.355       .  A
N848        H880   1.034       .  S
N849        C856   1.351       .  A
N849        C857   1.351       .  A
N850        C855   1.351       .  A
N850        C854   1.350       .  A
N850        H881   1.037       .  S
N851        C858   1.352       .  A
N851        C859   1.352       .  A
C852        C860   1.387       .  A
C852        C868   1.418       .  A
C853        C869   1.419       .  A
C853        C861   1.388       .  A
C854        C862   1.387       .  A
C854        C871   1.410       .  A
C855        C870   1.409       .  A
C855        C863   1.387       .  A
C856        C868   1.414       .  A
C856        C864   1.386       .  A
C857        C871   1.413       .  A
C857        C865   1.386       .  A
C858        C866   1.387       .  A
C858        C869   1.417       .  A
C859        C867   1.385       .  A
C859        C870   1.414       .  A
C860        C861   1.375       .  A
C860        H872   1.082       .  S
C861        H873   1.082       .  S
C862        C863   1.370       .  A
C862        H874   1.082       .  S
C863        H875   1.082       .  S
C864        C865   1.374       .  A
C864        H876   1.082       .  S
C865        H877   1.082       .  S
C866        C867   1.377       .  A
C866        H878   1.082       .  S
C867        H879   1.082       .  S
C868       C3037   1.487       .  S
C869       C2987   1.489       .  S
C870       C4087   1.481       .  S
C871       C3654   1.480       .  S
N882        C887   1.353       .  A
N882        C886   1.355       .  A
N882        H914   1.035       .  S
N883        C890   1.353       .  A
N883        C891   1.352       .  A
N884        C889   1.352       .  A
N884        C888   1.352       .  A
N884        H915   1.038       .  S
N885        C892   1.353       .  A
N885        C893   1.352       .  A
C886        C894   1.387       .  A
C886        C902   1.419       .  A
C887        C903   1.418       .  A
C887        C895   1.387       .  A
C888        C896   1.387       .  A
C888        C905   1.411       .  A
C889        C904   1.410       .  A
C889        C897   1.387       .  A
C890        C902   1.416       .  A
C890        C898   1.386       .  A
C891        C905   1.415       .  A
C891        C899   1.386       .  A
C892        C900   1.386       .  A
C892        C903   1.417       .  A
C893        C901   1.387       .  A
C893        C904   1.417       .  A
C894        C895   1.375       .  A
C894        H906   1.082       .  S
C895        H907   1.082       .  S
C896        C897   1.368       .  A
C896        H908   1.082       .  S
C897        H909   1.082       .  S
C898        C899   1.374       .  A
C898        H910   1.082       .  S
C899        H911   1.082       .  S
C900        C901   1.376       .  A
C900        H912   1.082       .  S
C901        H913   1.083       .  S
C902       C3007   1.488       .  S
C903       C2957   1.488       .  S
C904       C3747   1.483       .  S
C905       C4037   1.482       .  S
N916        C921   1.353       .  A
N916        C920   1.356       .  A
N916        H948   1.035       .  S
N917        C924   1.351       .  A
N917        C925   1.351       .  A
N918        C923   1.352       .  A
N918        C922   1.349       .  A
N918        H949   1.036       .  S
N919        C926   1.351       .  A
N919        C927   1.355       .  A
C920        C928   1.387       .  A
C920        C936   1.419       .  A
C921        C937   1.418       .  A
C921        C929   1.388       .  A
C922        C930   1.388       .  A
C922        C939   1.409       .  A
C923        C938   1.408       .  A
C923        C931   1.386       .  A
C924        C936   1.415       .  A
C924        C932   1.387       .  A
C925        C939   1.412       .  A
C925        C933   1.386       .  A
C926        C934   1.387       .  A
C926        C937   1.418       .  A
C927        C935   1.385       .  A
C927        C938   1.417       .  A
C928        C929   1.374       .  A
C928        H940   1.082       .  S
C929        H941   1.082       .  S
C930        C931   1.369       .  A
C930        H942   1.082       .  S
C931        H943   1.082       .  S
C932        C933   1.375       .  A
C932        H944   1.082       .  S
C933        H945   1.082       .  S
C934        C935   1.376       .  A
C934        H946   1.082       .  S
C935        H947   1.082       .  S
C936       C3027   1.490       .  S
C937       C3017   1.485       .  S
C938       C3324   1.489       .  S
C939       C3477   1.474       .  S
N950        C955   1.356       .  A
N950        C954   1.355       .  A
N950        H982   1.031       .  S
N951        C958   1.353       .  A
N951        C959   1.353       .  A
N952        C957   1.352       .  A
N952        C956   1.353       .  A
N952        H983   1.036       .  S
N953        C960   1.354       .  A
N953        C961   1.353       .  A
C954        C962   1.387       .  A
C954        C970   1.422       .  A
C955        C971   1.423       .  A
C955        C963   1.388       .  A
C956        C964   1.386       .  A
C956        C973   1.413       .  A
C957        C972   1.413       .  A
C957        C965   1.388       .  A
C958        C970   1.419       .  A
C958        C966   1.387       .  A
C959        C973   1.418       .  A
C959        C967   1.386       .  A
C960        C968   1.386       .  A
C960        C971   1.420       .  A
C961        C969   1.387       .  A
C961        C972   1.420       .  A
C962        C963   1.374       .  A
C962        H974   1.082       .  S
C963        H975   1.082       .  S
C964        C965   1.370       .  A
C964        H976   1.082       .  S
C965        H977   1.082       .  S
C966        C967   1.373       .  A
C966        H978   1.082       .  S
C967        H979   1.082       .  S
C968        C969   1.376       .  A
C968        H980   1.082       .  S
C969        H981   1.082       .  S
C970       C3047   1.490       .  S
C971       C2947   1.493       .  S
C972       C3517   1.485       .  S
C973       C2917   1.487       .  S
C984       C2904   1.484       .  S
C984        N985   1.361       .  A
C984        N989   1.359       .  A
N985        C986   1.359       .  A
C986       C2884   1.489       .  S
C986        N987   1.358       .  A
N987        C988   1.357       .  A
C988       C2894   1.487       .  S
C988        N989   1.358       .  A
N990        C995   1.354       .  A
N990        C994   1.353       .  A
N990       H1022   1.032       .  S
N991        C998   1.350       .  A
N991        C999   1.350       .  A
N992        C997   1.349       .  A
N992        C996   1.351       .  A
N992       H1023   1.036       .  S
N993       C1000   1.351       .  A
N993       C1001   1.352       .  A
C994       C1002   1.388       .  A
C994       C1010   1.419       .  A
C995       C1011   1.419       .  A
C995       C1003   1.388       .  A
C996       C1004   1.387       .  A
C996       C1013   1.408       .  A
C997       C1012   1.408       .  A
C997       C1005   1.387       .  A
C998       C1010   1.414       .  A
C998       C1006   1.387       .  A
C999       C1013   1.413       .  A
C999       C1007   1.386       .  A
C1000      C1008   1.387       .  A
C1000      C1011   1.416       .  A
C1001      C1009   1.385       .  A
C1001      C1012   1.413       .  A
C1002      C1003   1.373       .  A
C1002      H1014   1.082       .  S
C1003      H1015   1.082       .  S
C1004      C1005   1.370       .  A
C1004      H1016   1.082       .  S
C1005      H1017   1.082       .  S
C1006      C1007   1.373       .  A
C1006      H1018   1.082       .  S
C1007      H1019   1.082       .  S
C1008      C1009   1.376       .  A
C1008      H1020   1.082       .  S
C1009      H1021   1.082       .  S
C1010      C2874   1.480       .  S
C1011      C2887   1.483       .  S
C1012      C3417   1.478       .  S
C1013      C4094   1.477       .  S
C1024      C2867   1.487   1_554  S
C1024      N1025   1.361       .  A
C1024      N1029   1.362       .  A
N1025      C1026   1.360       .  A
C1026      C2857   1.486       .  S
C1026      N1027   1.358       .  A
N1027      C1028   1.357       .  A
C1028      C2844   1.489       .  S
C1028      N1029   1.360       .  A
C1030      C2814   1.491       .  S
C1030      N1031   1.357       .  A
C1030      N1035   1.364       .  A
N1031      C1032   1.356       .  A
C1032      C2827   1.486       .  S
C1032      N1033   1.358       .  A
N1033      C1034   1.361       .  A
C1034      C2834   1.493   1_554  S
C1034      N1035   1.364       .  A
C1036      C2807   1.487       .  S
C1036      N1037   1.362       .  A
C1036      N1041   1.362       .  A
N1037      C1038   1.358       .  A
C1038      C2877   1.485       .  S
C1038      N1039   1.355       .  A
N1039      C1040   1.354       .  A
C1040      C2794   1.482       .  S
C1040      N1041   1.359       .  A
N1042      C1047   1.354       .  A
N1042      C1046   1.354       .  A
N1042      H1074   1.036       .  S
N1043      C1050   1.348       .  A
N1043      C1051   1.350       .  A
N1044      C1049   1.348       .  A
N1044      C1048   1.349       .  A
N1044      H1075   1.035       .  S
N1045      C1052   1.350       .  A
N1045      C1053   1.351       .  A
C1046      C1054   1.387       .  A
C1046      C1062   1.417       .  A
C1047      C1063   1.417       .  A
C1047      C1055   1.387       .  A
C1048      C1056   1.388       .  A
C1048      C1065   1.408       .  A
C1049      C1064   1.406       .  A
C1049      C1057   1.387       .  A
C1050      C1062   1.412       .  A
C1050      C1058   1.388       .  A
C1051      C1065   1.410       .  A
C1051      C1059   1.385       .  A
C1052      C1060   1.387       .  A
C1052      C1063   1.413       .  A
C1053      C1061   1.386       .  A
C1053      C1064   1.412       .  A
C1054      C1055   1.375       .  A
C1054      H1066   1.082       .  S
C1055      H1067   1.082       .  S
C1056      C1057   1.368       .  A
C1056      H1068   1.082       .  S
C1057      H1069   1.082       .  S
C1058      C1059   1.376       .  A
C1058      H1070   1.082       .  S
C1059      H1071   1.082       .  S
C1060      C1061   1.376       .  A
C1060      H1072   1.082       .  S
C1061      H1073   1.082       .  S
C1062      C2797   1.481       .  S
C1063      C2817   1.484       .  S
C1064      C3564   1.472       .  S
C1065      C3707   1.475       .  S
N1076      C1081   1.353       .  A
N1076      C1080   1.354       .  A
N1076      H1108   1.033       .  S
N1077      C1084   1.350       .  A
N1077      C1085   1.350       .  A
N1078      C1083   1.348       .  A
N1078      C1082   1.348       .  A
N1078      H1109   1.037       .  S
N1079      C1086   1.350       .  A
N1079      C1087   1.350       .  A
C1080      C1088   1.386       .  A
C1080      C1096   1.417       .  A
C1081      C1097   1.420       .  A
C1081      C1089   1.389       .  A
C1082      C1090   1.388       .  A
C1082      C1099   1.405       .  A
C1083      C1098   1.405       .  A
C1083      C1091   1.387       .  A
C1084      C1096   1.413       .  A
C1084      C1092   1.386       .  A
C1085      C1099   1.413       .  A
C1085      C1093   1.386       .  A
C1086      C1094   1.387       .  A
C1086      C1097   1.414       .  A
C1087      C1095   1.385       .  A
C1087      C1098   1.411       .  A
C1088      C1089   1.374       .  A
C1088      H1100   1.082       .  S
C1089      H1101   1.082       .  S
C1090      C1091   1.370       .  A
C1090      H1102   1.083       .  S
C1091      H1103   1.082       .  S
C1092      C1093   1.373       .  A
C1092      H1104   1.082       .  S
C1093      H1105   1.082       .  S
C1094      C1095   1.375       .  A
C1094      H1106   1.082       .  S
C1095      H1107   1.082       .  S
C1096      C2847   1.484       .  S
C1097      C2804   1.482       .  S
C1098      C4027   1.473       .  S
C1099      C3074   1.473       .  S
N1110      C1115   1.355       .  A
N1110      C1114   1.355       .  A
N1110      H1142   1.033       .  S
N1111      C1118   1.353       .  A
N1111      C1119   1.352       .  A
N1112      C1117   1.352       .  A
N1112      C1116   1.350       .  A
N1112      H1143   1.034       .  S
N1113      C1120   1.353       .  A
N1113      C1121   1.354       .  A
C1114      C1122   1.387       .  A
C1114      C1130   1.422       .  A
C1115      C1131   1.422       .  A
C1115      C1123   1.388       .  A
C1116      C1124   1.387       .  A
C1116      C1133   1.411       .  A
C1117      C1132   1.413       .  A
C1117      C1125   1.388       .  A
C1118      C1130   1.417       .  A
C1118      C1126   1.387       .  A
C1119      C1133   1.414       .  A
C1119      C1127   1.386       .  A
C1120      C1128   1.387       .  A
C1120      C1131   1.419       .  A
C1121      C1129   1.386       .  A
C1121      C1132   1.419       .  A
C1122      C1123   1.375       .  A
C1122      H1134   1.082       .  S
C1123      H1135   1.082       .  S
C1124      C1125   1.370       .  A
C1124      H1136   1.082       .  S
C1125      H1137   1.082       .  S
C1126      C1127   1.373       .  A
C1126      H1138   1.082       .  S
C1127      H1139   1.082       .  S
C1128      C1129   1.375       .  A
C1128      H1140   1.082       .  S
C1129      H1141   1.082       .  S
C1130      C2864   1.494       .  S
C1131      C2837   1.491       .  S
C1132      C3617   1.487       .  S
C1133      C2784   1.476       .  S
N1144      C1149   1.353       .  A
N1144      C1148   1.354       .  A
N1144      H1176   1.036       .  S
N1145      C1152   1.350       .  A
N1145      C1153   1.350       .  A
N1146      C1151   1.351       .  A
N1146      C1150   1.351       .  A
N1146      H1177   1.037       .  S
N1147      C1154   1.351       .  A
N1147      C1155   1.352       .  A
C1148      C1156   1.387       .  A
C1148      C1164   1.416       .  A
C1149      C1165   1.416       .  A
C1149      C1157   1.388       .  A
C1150      C1158   1.387       .  A
C1150      C1167   1.410       .  A
C1151      C1166   1.411       .  A
C1151      C1159   1.387       .  A
C1152      C1164   1.412       .  A
C1152      C1160   1.386       .  A
C1153      C1167   1.411       .  A
C1153      C1161   1.386       .  A
C1154      C1162   1.386       .  A
C1154      C1165   1.414       .  A
C1155      C1163   1.387       .  A
C1155      C1166   1.416       .  A
C1156      C1157   1.374       .  A
C1156      H1168   1.082       .  S
C1157      H1169   1.082       .  S
C1158      C1159   1.370       .  A
C1158      H1170   1.082       .  S
C1159      H1171   1.082       .  S
C1160      C1161   1.374       .  A
C1160      H1172   1.082       .  S
C1161      H1173   1.082       .  S
C1162      C1163   1.375       .  A
C1162      H1174   1.082       .  S
C1163      H1175   1.082       .  S
C1164      C2854   1.484       .  S
C1165      C2897   1.482       .  S
C1166      C3354   1.486       .  S
C1167      C3507   1.478       .  S
N1178      C1183   1.352       .  A
N1178      C1182   1.353       .  A
N1178      H1210   1.036       .  S
N1179      C1186   1.348       .  A
N1179      C1187   1.349       .  A
N1180      C1185   1.349       .  A
N1180      C1184   1.350       .  A
N1180      H1211   1.036       .  S
N1181      C1188   1.351       .  A
N1181      C1189   1.351       .  A
C1182      C1190   1.387       .  A
C1182      C1198   1.414       .  A
C1183      C1199   1.414       .  A
C1183      C1191   1.387       .  A
C1184      C1192   1.387       .  A
C1184      C1201   1.410       .  A
C1185      C1200   1.409       .  A
C1185      C1193   1.388       .  A
C1186      C1198   1.409       .  A
C1186      C1194   1.386       .  A
C1187      C1201   1.408       .  A
C1187      C1195   1.385       .  A
C1188      C1196   1.386       .  A
C1188      C1199   1.413       .  A
C1189      C1197   1.386       .  A
C1189      C1200   1.413       .  A
C1190      C1191   1.374       .  A
C1190      H1202   1.082       .  S
C1191      H1203   1.082       .  S
C1192      C1193   1.370       .  A
C1192      H1204   1.082       .  S
C1193      H1205   1.082       .  S
C1194      C1195   1.374       .  A
C1194      H1206   1.082       .  S
C1195      H1207   1.082       .  S
C1196      C1197   1.377       .  A
C1196      H1208   1.082       .  S
C1197      H1209   1.082       .  S
C1198      C2907   1.477       .  S
C1199      C2824   1.482       .  S
C1200      C3307   1.476       .  S
C1201      C3127   1.475       .  S
O1212      C1228   1.272       .  A
O1212     Zn1218   1.999       .  S
C1213      O1229   1.273       .  A
C1213      O1226   1.273       .  A
C1213      C2774   1.481       .  S
O1214      C1227   1.277       .  A
O1214     Cd1221   2.094       .  S
O1215      C1233   1.268       .  A
O1215     Cd1224   2.021       .  S
O1216      C1230   1.273       .  A
O1216     Cd1220   2.046       .  S
O1217      C1228   1.273       .  A
O1217     Cd1220   2.059       .  S
Zn1218     O1229   2.007       .  S
Zn1218     O1231   1.945       .  S
Zn1218     O1223   1.899       .  S
O1219      C1230   1.274       .  A
O1219     Cd1224   2.060       .  S
Cd1220     O1222   2.021       .  S
Cd1220     O1223   1.966       .  S
Cd1221     O1225   2.106       .  S
Cd1221     O1234   2.101       .  S
Cd1221     O1223   2.025       .  S
O1222      C1232   1.268       .  A
O1223     Cd1224   1.970       .  S
Cd1224     O1226   2.053       .  S
O1225      C1232   1.279       .  A
C1227      O1231   1.266       .  A
C1227      C2754   1.458       .  S
C1228      C2764   1.482       .  S
C1230      C2787   1.477       .  S
C1232      C2927   1.471       .  S
C1233      O1234   1.278       .  A
C1233      C3797   1.465       .  S
O1235      C1251   1.271       .  A
O1235     Zn1241   1.996       .  S
C1236      O1252   1.273       .  A
C1236      O1249   1.270       .  A
C1236      C2734   1.475       .  S
O1237      C1250   1.281       .  A
O1237     Cd1244   2.122   1_455  S
O1238      C1256   1.265       .  A
O1238     Cd1247   2.005   1_565  S
O1239      C1253   1.274       .  A
O1239     Cd1243   2.058       .  S
O1240      C1251   1.274       .  A
O1240     Cd1243   2.067   1_455  S
Zn1241     O1252   1.991   1_545  S
Zn1241     O1254   1.942   1_545  S
Zn1241     O1246   1.899   1_455  S
O1242      C1253   1.272       .  A
O1242     Cd1247   2.043       .  S
Cd1243     O1245   2.005       .  S
Cd1243     O1246   1.972       .  S
Cd1244     O1248   2.132   1_565  S
Cd1244     O1257   2.127       .  S
Cd1244     O1246   2.032   1_565  S
O1245      C1255   1.266       .  A
O1246     Cd1247   1.964       .  S
Cd1247     O1249   2.041   1_645  S
O1248      C1255   1.283       .  A
C1250      O1254   1.265       .  A
C1250      C3144   1.470       .  S
C1251      C2717   1.481       .  S
C1253      C2724   1.474       .  S
C1255      C2744   1.473       .  S
C1256      O1257   1.282       .  A
C1256      C3817   1.466       .  S
C1258      C2697   1.493       .  S
C1258      N1259   1.362       .  A
C1258      N1263   1.360       .  A
N1259      C1260   1.362       .  A
C1260      C2707   1.493   1_545  S
C1260      N1261   1.359       .  A
N1261      C1262   1.358       .  A
C1262      C2687   1.490       .  S
C1262      N1263   1.359       .  A
C1264      C2677   1.481       .  S
C1264      N1265   1.361       .  A
C1264      N1269   1.359       .  A
N1265      C1266   1.359       .  A
C1266      C2657   1.478       .  S
C1266      N1267   1.354       .  A
N1267      C1268   1.355       .  A
C1268      C2664   1.482       .  S
C1268      N1269   1.357       .  A
C1270      C2647   1.483       .  S
C1270      N1271   1.362       .  A
C1270      N1275   1.358       .  A
N1271      C1272   1.363       .  A
C1272      C2634   1.493       .  S
C1272      N1273   1.361       .  A
N1273      C1274   1.358       .  A
C1274      C2624   1.485       .  S
C1274      N1275   1.357       .  A
N1276      C1281   1.355       .  A
N1276      C1280   1.354       .  A
N1276      H1308   1.032       .  S
N1277      C1284   1.351       .  A
N1277      C1285   1.353       .  A
N1278      C1283   1.348       .  A
N1278      C1282   1.348       .  A
N1278      H1309   1.033       .  S
N1279      C1286   1.349       .  A
N1279      C1287   1.350       .  A
C1280      C1288   1.388       .  A
C1280      C1296   1.421       .  A
C1281      C1297   1.420       .  A
C1281      C1289   1.387       .  A
C1282      C1290   1.388       .  A
C1282      C1299   1.408       .  A
C1283      C1298   1.406       .  A
C1283      C1291   1.387       .  A
C1284      C1296   1.418       .  A
C1284      C1292   1.387       .  A
C1285      C1299   1.415       .  A
C1285      C1293   1.385       .  A
C1286      C1294   1.388       .  A
C1286      C1297   1.413       .  A
C1287      C1295   1.385       .  A
C1287      C1298   1.409       .  A
C1288      C1289   1.376       .  A
C1288      H1300   1.082       .  S
C1289      H1301   1.082       .  S
C1290      C1291   1.369       .  A
C1290      H1302   1.082       .  S
C1291      H1303   1.082       .  S
C1292      C1293   1.377       .  A
C1292      H1304   1.082       .  S
C1293      H1305   1.082       .  S
C1294      C1295   1.373       .  A
C1294      H1306   1.082       .  S
C1295      H1307   1.082       .  S
C1296      C2637   1.487       .  S
C1297      C2654   1.484       .  S
C1298      C3117   1.470       .  S
C1299      C4017   1.480       .  S
N1310      C1315   1.354       .  A
N1310      C1314   1.353       .  A
N1310      H1342   1.037       .  S
N1311      C1318   1.350       .  A
N1311      C1319   1.351       .  A
N1312      C1317   1.348       .  A
N1312      C1316   1.348       .  A
N1312      H1343   1.036       .  S
N1313      C1320   1.350       .  A
N1313      C1321   1.350       .  A
C1314      C1322   1.385       .  A
C1314      C1330   1.415       .  A
C1315      C1331   1.418       .  A
C1315      C1323   1.389       .  A
C1316      C1324   1.387       .  A
C1316      C1333   1.405       .  A
C1317      C1332   1.405       .  A
C1317      C1325   1.388       .  A
C1318      C1330   1.412       .  A
C1318      C1326   1.387       .  A
C1319      C1333   1.410       .  A
C1319      C1327   1.385       .  A
C1320      C1328   1.387       .  A
C1320      C1331   1.414       .  A
C1321      C1329   1.386       .  A
C1321      C1332   1.411       .  A
C1322      C1323   1.376       .  A
C1322      H1334   1.082       .  S
C1323      H1335   1.082       .  S
C1324      C1325   1.367       .  A
C1324      H1336   1.082       .  S
C1325      H1337   1.082       .  S
C1326      C1327   1.375       .  A
C1326      H1338   1.082       .  S
C1327      H1339   1.082       .  S
C1328      C1329   1.375       .  A
C1328      H1340   1.082       .  S
C1329      H1341   1.083       .  S
C1330      C2627   1.484       .  S
C1331      C2684   1.484       .  S
C1332      C3457   1.470       .  S
C1333      C3647   1.473       .  S
C1344      C2607   1.492       .  S
C1344      N1345   1.358       .  A
C1344      N1349   1.360       .  A
N1345      C1346   1.359       .  A
C1346      C2594   1.485       .  S
C1346      N1347   1.359       .  A
N1347      C1348   1.360       .  A
C1348      C2617   1.488       .  S
C1348      N1349   1.362       .  A
N1350      C1355   1.355       .  A
N1350      C1354   1.352       .  A
N1350      H1382   1.038       .  S
N1351      C1358   1.350       .  A
N1351      C1359   1.352       .  A
N1352      C1357   1.349       .  A
N1352      C1356   1.349       .  A
N1352      H1383   1.038       .  S
N1353      C1360   1.351       .  A
N1353      C1361   1.349       .  A
C1354      C1362   1.388       .  A
C1354      C1370   1.417       .  A
C1355      C1371   1.416       .  A
C1355      C1363   1.386       .  A
C1356      C1364   1.387       .  A
C1356      C1373   1.406       .  A
C1357      C1372   1.407       .  A
C1357      C1365   1.387       .  A
C1358      C1370   1.414       .  A
C1358      C1366   1.387       .  A
C1359      C1373   1.412       .  A
C1359      C1367   1.385       .  A
C1360      C1368   1.385       .  A
C1360      C1371   1.411       .  A
C1361      C1369   1.386       .  A
C1361      C1372   1.411       .  A
C1362      C1363   1.374       .  A
C1362      H1374   1.082       .  S
C1363      H1375   1.082       .  S
C1364      C1365   1.369       .  A
C1364      H1376   1.082       .  S
C1365      H1377   1.082       .  S
C1366      C1367   1.377       .  A
C1366      H1378   1.082       .  S
C1367      H1379   1.082       .  S
C1368      C1369   1.374       .  A
C1368      H1380   1.082       .  S
C1369      H1381   1.082       .  S
C1370      C2597   1.482       .  S
C1371      C2644   1.490       .  S
C1372      C4107   1.476       .  S
C1373      C2767   1.478       .  S
N1384      C1389   1.354       .  A
N1384      C1388   1.352       .  A
N1384      H1416   1.033       .  S
N1385      C1392   1.348       .  A
N1385      C1393   1.350       .  A
N1386      C1391   1.350       .  A
N1386      C1390   1.349       .  A
N1386      H1417   1.039       .  S
N1387      C1394   1.351       .  A
N1387      C1395   1.350       .  A
C1388      C1396   1.389       .  A
C1388      C1404   1.419       .  A
C1389      C1405   1.419       .  A
C1389      C1397   1.387       .  A
C1390      C1398   1.387       .  A
C1390      C1407   1.404       .  A
C1391      C1406   1.406       .  A
C1391      C1399   1.387       .  A
C1392      C1404   1.415       .  A
C1392      C1400   1.389       .  A
C1393      C1407   1.408       .  A
C1393      C1401   1.384       .  A
C1394      C1402   1.386       .  A
C1394      C1405   1.415       .  A
C1395      C1403   1.386       .  A
C1395      C1406   1.415       .  A
C1396      C1397   1.374       .  A
C1396      H1408   1.082       .  S
C1397      H1409   1.082       .  S
C1398      C1399   1.367       .  A
C1398      H1410   1.082       .  S
C1399      H1411   1.082       .  S
C1400      C1401   1.375       .  A
C1400      H1412   1.082       .  S
C1401      H1413   1.082       .  S
C1402      C1403   1.375       .  A
C1402      H1414   1.082       .  S
C1403      H1415   1.082       .  S
C1404      C2667   1.477       .  S
C1405      C2704   1.487       .  S
C1406      C3627   1.482       .  S
C1407      C3407   1.474       .  S
N1418      C1423   1.352       .  A
N1418      C1422   1.352       .  A
N1418      H1450   1.037       .  S
N1419      C1426   1.349       .  A
N1419      C1427   1.350       .  A
N1420      C1425   1.349       .  A
N1420      C1424   1.349       .  A
N1420      H1451   1.038       .  S
N1421      C1428   1.348       .  A
N1421      C1429   1.349       .  A
C1422      C1430   1.387       .  A
C1422      C1438   1.413       .  A
C1423      C1439   1.414       .  A
C1423      C1431   1.388       .  A
C1424      C1432   1.387       .  A
C1424      C1441   1.406       .  A
C1425      C1440   1.407       .  A
C1425      C1433   1.387       .  A
C1426      C1438   1.411       .  A
C1426      C1434   1.386       .  A
C1427      C1441   1.409       .  A
C1427      C1435   1.385       .  A
C1428      C1436   1.387       .  A
C1428      C1439   1.410       .  A
C1429      C1437   1.386       .  A
C1429      C1440   1.408       .  A
C1430      C1431   1.374       .  A
C1430      H1442   1.082       .  S
C1431      H1443   1.082       .  S
C1432      C1433   1.370       .  A
C1432      H1444   1.082       .  S
C1433      H1445   1.082       .  S
C1434      C1435   1.377       .  A
C1434      H1446   1.082       .  S
C1435      H1447   1.082       .  S
C1436      C1437   1.377       .  A
C1436      H1448   1.082       .  S
C1437      H1449   1.082       .  S
C1438      C2614   1.480       .  S
C1439      C2674   1.479       .  S
C1440      C2727   1.473       .  S
C1441      C2584   1.475       .  S
N1452      C1457   1.354       .  A
N1452      C1456   1.356       .  A
N1452      H1484   1.036       .  S
N1453      C1460   1.352       .  A
N1453      C1461   1.351       .  A
N1454      C1459   1.352       .  A
N1454      C1458   1.350       .  A
N1454      H1485   1.035       .  S
N1455      C1462   1.352       .  A
N1455      C1463   1.354       .  A
C1456      C1464   1.386       .  A
C1456      C1472   1.417       .  A
C1457      C1473   1.420       .  A
C1457      C1465   1.389       .  A
C1458      C1466   1.388       .  A
C1458      C1475   1.411       .  A
C1459      C1474   1.411       .  A
C1459      C1467   1.387       .  A
C1460      C1472   1.413       .  A
C1460      C1468   1.386       .  A
C1461      C1475   1.414       .  A
C1461      C1469   1.387       .  A
C1462      C1470   1.387       .  A
C1462      C1473   1.417       .  A
C1463      C1471   1.386       .  A
C1463      C1474   1.417       .  A
C1464      C1465   1.376       .  A
C1464      H1476   1.082       .  S
C1465      H1477   1.082       .  S
C1466      C1467   1.371       .  A
C1466      H1478   1.082       .  S
C1467      H1479   1.082       .  S
C1468      C1469   1.373       .  A
C1468      H1480   1.082       .  S
C1469      H1481   1.082       .  S
C1470      C1471   1.377       .  A
C1470      H1482   1.082       .  S
C1471      H1483   1.082       .  S
C1472      C2604   1.489       .  S
C1473      C2694   1.487       .  S
C1474      C3294   1.484       .  S
C1475      C3064   1.477       .  S
C1486      C2567   1.486   1_455  S
C1486      N1487   1.358       .  A
C1486      N1491   1.358       .  A
N1487      C1488   1.360       .  A
C1488      C2577   1.488       .  S
C1488      N1489   1.362       .  A
N1489      C1490   1.362       .  A
C1490      C2554   1.493       .  S
C1490      N1491   1.360       .  A
N1492      C1497   1.357       .  A
N1492      C1496   1.356       .  A
N1492      H1524   1.035       .  S
N1493      C1500   1.351       .  A
N1493      C1501   1.352       .  A
N1494      C1499   1.347       .  A
N1494      C1498   1.348       .  A
N1494      H1525   1.037       .  S
N1495      C1502   1.350       .  A
N1495      C1503   1.351       .  A
C1496      C1504   1.388       .  A
C1496      C1512   1.423       .  A
C1497      C1513   1.422       .  A
C1497      C1505   1.386       .  A
C1498      C1506   1.386       .  A
C1498      C1515   1.403       .  A
C1499      C1514   1.404       .  A
C1499      C1507   1.388       .  A
C1500      C1512   1.416       .  A
C1500      C1508   1.387       .  A
C1501      C1515   1.414       .  A
C1501      C1509   1.385       .  A
C1502      C1510   1.387       .  A
C1502      C1513   1.414       .  A
C1503      C1511   1.385       .  A
C1503      C1514   1.410       .  A
C1504      C1505   1.376       .  A
C1504      H1516   1.082       .  S
C1505      H1517   1.082       .  S
C1506      C1507   1.370       .  A
C1506      H1518   1.082       .  S
C1507      H1519   1.082       .  S
C1508      C1509   1.375       .  A
C1508      H1520   1.082       .  S
C1509      H1521   1.083       .  S
C1510      C1511   1.375       .  A
C1510      H1522   1.082       .  S
C1511      H1523   1.082       .  S
C1512      C2557   1.488       .  S
C1513      C2544   1.490       .  S
C1514      C3734   1.473       .  S
C1515      C3374   1.477       .  S
C1526      C2517   1.485       .  S
C1526      N1527   1.360       .  A
C1526      N1531   1.362       .  A
N1527      C1528   1.356       .  A
C1528      C2524   1.474       .  S
C1528      N1529   1.353       .  A
N1529      C1530   1.355       .  A
C1530      C2534   1.483       .  S
C1530      N1531   1.360       .  A
C1532      C2504   1.489       .  S
C1532      N1533   1.360       .  A
C1532      N1537   1.356       .  A
N1533      C1534   1.363       .  A
C1534      C2547   1.495       .  S
C1534      N1535   1.363       .  A
N1535      C1536   1.362       .  A
C1536      C2494   1.490       .  S
C1536      N1537   1.356       .  A
N1538      C1543   1.353       .  A
N1538      C1542   1.351       .  A
N1538      H1570   1.036       .  S
N1539      C1546   1.353       .  A
N1539      C1547   1.353       .  A
N1540      C1545   1.351       .  A
N1540      C1544   1.351       .  A
N1540      H1571   1.037       .  S
N1541      C1548   1.352       .  A
N1541      C1549   1.351       .  A
C1542      C1550   1.387       .  A
C1542      C1558   1.414       .  A
C1543      C1559   1.414       .  A
C1543      C1551   1.387       .  A
C1544      C1552   1.387       .  A
C1544      C1561   1.411       .  A
C1545      C1560   1.410       .  A
C1545      C1553   1.387       .  A
C1546      C1558   1.414       .  A
C1546      C1554   1.385       .  A
C1547      C1561   1.419       .  A
C1547      C1555   1.387       .  A
C1548      C1556   1.385       .  A
C1548      C1559   1.412       .  A
C1549      C1557   1.388       .  A
C1549      C1560   1.416       .  A
C1550      C1551   1.374       .  A
C1550      H1562   1.082       .  S
C1551      H1563   1.082       .  S
C1552      C1553   1.374       .  A
C1552      H1564   1.082       .  S
C1553      H1565   1.082       .  S
C1554      C1555   1.374       .  A
C1554      H1566   1.082       .  S
C1555      H1567   1.082       .  S
C1556      C1557   1.373       .  A
C1556      H1568   1.082       .  S
C1557      H1569   1.082       .  S
C1558      C2514   1.483       .  S
C1559      C2497   1.483       .  S
C1560      C4067   1.481       .  S
C1561      C3587   1.489       .  S
C1572      C2487   1.487       .  S
C1572      N1573   1.364       .  A
C1572      N1577   1.360       .  A
N1573      C1574   1.363       .  A
C1574      C2464   1.494   1_455  S
C1574      N1575   1.358       .  A
N1575      C1576   1.357       .  A
C1576      C2477   1.482       .  S
C1576      N1577   1.358       .  A
N1578      C1583   1.355       .  A
N1578      C1582   1.354       .  A
N1578      H1610   1.036       .  S
N1579      C1586   1.351       .  A
N1579      C1587   1.353       .  A
N1580      C1585   1.350       .  A
N1580      C1584   1.348       .  A
N1580      H1611   1.036       .  S
N1581      C1588   1.349       .  A
N1581      C1589   1.351       .  A
C1582      C1590   1.388       .  A
C1582      C1598   1.419       .  A
C1583      C1599   1.419       .  A
C1583      C1591   1.387       .  A
C1584      C1592   1.386       .  A
C1584      C1601   1.407       .  A
C1585      C1600   1.410       .  A
C1585      C1593   1.389       .  A
C1586      C1598   1.414       .  A
C1586      C1594   1.386       .  A
C1587      C1601   1.414       .  A
C1587      C1595   1.385       .  A
C1588      C1596   1.387       .  A
C1588      C1599   1.413       .  A
C1589      C1597   1.385       .  A
C1589      C1600   1.412       .  A
C1590      C1591   1.375       .  A
C1590      H1602   1.082       .  S
C1591      H1603   1.082       .  S
C1592      C1593   1.372       .  A
C1592      H1604   1.083       .  S
C1593      H1605   1.081       .  S
C1594      C1595   1.377       .  A
C1594      H1606   1.082       .  S
C1595      H1607   1.082       .  S
C1596      C1597   1.374       .  A
C1596      H1608   1.082       .  S
C1597      H1609   1.082       .  S
C1598      C2507   1.487       .  S
C1599      C2474   1.486       .  S
C1600      C2454   1.479       .  S
C1601      C3687   1.481       .  S
N1612      C1617   1.356       .  A
N1612      C1616   1.354       .  A
N1612      H1644   1.036       .  S
N1613      C1620   1.350       .  A
N1613      C1621   1.353       .  A
N1614      C1619   1.349       .  A
N1614      C1618   1.351       .  A
N1614      H1645   1.039       .  S
N1615      C1622   1.350       .  A
N1615      C1623   1.350       .  A
C1616      C1624   1.387       .  A
C1616      C1632   1.420       .  A
C1617      C1633   1.421       .  A
C1617      C1625   1.388       .  A
C1618      C1626   1.388       .  A
C1618      C1635   1.408       .  A
C1619      C1634   1.405       .  A
C1619      C1627   1.386       .  A
C1620      C1632   1.416       .  A
C1620      C1628   1.388       .  A
C1621      C1635   1.413       .  A
C1621      C1629   1.384       .  A
C1622      C1630   1.387       .  A
C1622      C1633   1.414       .  A
C1623      C1631   1.385       .  A
C1623      C1634   1.410       .  A
C1624      C1625   1.376       .  A
C1624      H1636   1.082       .  S
C1625      H1637   1.082       .  S
C1626      C1627   1.369       .  A
C1626      H1638   1.081       .  S
C1627      H1639   1.082       .  S
C1628      C1629   1.378       .  A
C1628      H1640   1.082       .  S
C1629      H1641   1.082       .  S
C1630      C1631   1.377       .  A
C1630      H1642   1.082       .  S
C1631      H1643   1.082       .  S
C1632      C2564   1.487       .  S
C1633      C2467   1.490       .  S
C1634      C2777   1.476       .  S
C1635      C3427   1.485       .  S
N1646      C1651   1.354       .  A
N1646      C1650   1.352       .  A
N1646      H1678   1.033       .  S
N1647      C1654   1.349       .  A
N1647      C1655   1.350       .  A
N1648      C1653   1.348       .  A
N1648      C1652   1.350       .  A
N1648      H1679   1.034       .  S
N1649      C1656   1.351       .  A
N1649      C1657   1.350       .  A
C1650      C1658   1.388       .  A
C1650      C1666   1.418       .  A
C1651      C1667   1.419       .  A
C1651      C1659   1.387       .  A
C1652      C1660   1.385       .  A
C1652      C1669   1.406       .  A
C1653      C1668   1.411       .  A
C1653      C1661   1.390       .  A
C1654      C1666   1.413       .  A
C1654      C1662   1.388       .  A
C1655      C1669   1.412       .  A
C1655      C1663   1.386       .  A
C1656      C1664   1.386       .  A
C1656      C1667   1.414       .  A
C1657      C1665   1.386       .  A
C1657      C1668   1.413       .  A
C1658      C1659   1.374       .  A
C1658      H1670   1.082       .  S
C1659      H1671   1.082       .  S
C1660      C1661   1.367       .  A
C1660      H1672   1.083       .  S
C1661      H1673   1.081       .  S
C1662      C1663   1.370       .  A
C1662      H1674   1.082       .  S
C1663      H1675   1.082       .  S
C1664      C1665   1.374       .  A
C1664      H1676   1.082       .  S
C1665      H1677   1.082       .  S
C1666      C2537   1.478       .  S
C1667      C2574   1.486       .  S
C1668      C2737   1.472       .  S
C1669      C3444   1.476       .  S
N1680      C1685   1.353       .  A
N1680      C1684   1.353       .  A
N1680      H1712   1.034       .  S
N1681      C1688   1.350       .  A
N1681      C1689   1.349       .  A
N1682      C1687   1.351       .  A
N1682      C1686   1.351       .  A
N1682      H1713   1.034       .  S
N1683      C1690   1.353       .  A
N1683      C1691   1.353       .  A
C1684      C1692   1.388       .  A
C1684      C1700   1.418       .  A
C1685      C1701   1.415       .  A
C1685      C1693   1.387       .  A
C1686      C1694   1.389       .  A
C1686      C1703   1.413       .  A
C1687      C1702   1.411       .  A
C1687      C1695   1.387       .  A
C1688      C1700   1.413       .  A
C1688      C1696   1.387       .  A
C1689      C1703   1.411       .  A
C1689      C1697   1.386       .  A
C1690      C1698   1.386       .  A
C1690      C1701   1.417       .  A
C1691      C1699   1.385       .  A
C1691      C1702   1.416       .  A
C1692      C1693   1.373       .  A
C1692      H1704   1.082       .  S
C1693      H1705   1.082       .  S
C1694      C1695   1.367       .  A
C1694      H1706   1.082       .  S
C1695      H1707   1.082       .  S
C1696      C1697   1.374       .  A
C1696      H1708   1.082       .  S
C1697      H1709   1.083       .  S
C1698      C1699   1.376       .  A
C1698      H1710   1.082       .  S
C1699      H1711   1.082       .  S
C1700      C2527   1.483       .  S
C1701      C2484   1.488       .  S
C1702      C3497   1.483       .  S
C1703      C3547   1.474       .  S
C1714      C2424   1.505       .  S
C1714      N1715   1.367       .  A
C1714      N1719   1.364       .  A
N1715      C1716   1.366       .  A
C1716      C2444   1.501       .  S
C1716      N1717   1.362       .  A
N1717      C1718   1.360       .  A
C1718      C2437   1.503       .  S
C1718      N1719   1.362       .  A
N1720      C1725   1.354       .  A
N1720      C1724   1.358       .  A
N1720      H1752   1.035       .  S
N1721      C1728   1.356       .  A
N1721      C1729   1.354       .  A
N1722      C1727   1.353       .  A
N1722      C1726   1.351       .  A
N1722      H1753   1.038       .  S
N1723      C1730   1.351       .  A
N1723      C1731   1.354       .  A
C1724      C1732   1.388       .  A
C1724      C1740   1.423       .  A
C1725      C1741   1.422       .  A
C1725      C1733   1.388       .  A
C1726      C1734   1.388       .  A
C1726      C1743   1.414       .  A
C1727      C1742   1.410       .  A
C1727      C1735   1.386       .  A
C1728      C1740   1.422       .  A
C1728      C1736   1.386       .  A
C1729      C1743   1.422       .  A
C1729      C1737   1.387       .  A
C1730      C1738   1.388       .  A
C1730      C1741   1.417       .  A
C1731      C1739   1.385       .  A
C1731      C1742   1.415       .  A
C1732      C1733   1.375       .  A
C1732      H1744   1.081       .  S
C1733      H1745   1.082       .  S
C1734      C1735   1.371       .  A
C1734      H1746   1.082       .  S
C1735      H1747   1.082       .  S
C1736      C1737   1.376       .  A
C1736      H1748   1.082       .  S
C1737      H1749   1.082       .  S
C1738      C1739   1.377       .  A
C1738      H1750   1.082       .  S
C1739      H1751   1.082       .  S
C1740      C2434   1.502       .  S
C1741      C2414   1.486       .  S
C1742      C4057   1.488       .  S
C1743      C4007   1.493       .  S
C1754      C2417   1.491       .  S
C1754      N1755   1.362       .  A
C1754      N1759   1.362       .  A
N1755      C1756   1.358       .  A
C1756      C2407   1.480       .  S
C1756      N1757   1.355       .  A
N1757      C1758   1.356       .  A
C1758      C2394   1.486       .  S
C1758      N1759   1.361       .  A
C1760      C2374   1.492       .  S
C1760      N1761   1.364       .  A
C1760      N1765   1.358       .  A
N1761      C1762   1.364       .  A
C1762      C2387   1.491   1_655  S
C1762      N1763   1.358       .  A
N1763      C1764   1.356       .  A
C1764      C2364   1.483       .  S
C1764      N1765   1.357       .  A
C1766      C2334   1.492       .  S
C1766      N1767   1.358       .  A
C1766      N1771   1.365       .  A
N1767      C1768   1.358       .  A
C1768      C2344   1.493       .  S
C1768      N1769   1.360       .  A
N1769      C1770   1.361       .  A
C1770      C2354   1.496   1_655  S
C1770      N1771   1.366       .  A
N1772      C1777   1.355       .  A
N1772      C1776   1.355       .  A
N1772      H1804   1.037       .  S
N1773      C1780   1.354       .  A
N1773      C1781   1.354       .  A
N1774      C1779   1.351       .  A
N1774      C1778   1.350       .  A
N1774      H1805   1.038       .  S
N1775      C1782   1.351       .  A
N1775      C1783   1.351       .  A
C1776      C1784   1.387       .  A
C1776      C1792   1.419       .  A
C1777      C1793   1.418       .  A
C1777      C1785   1.387       .  A
C1778      C1786   1.387       .  A
C1778      C1795   1.408       .  A
C1779      C1794   1.409       .  A
C1779      C1787   1.387       .  A
C1780      C1792   1.419       .  A
C1780      C1788   1.386       .  A
C1781      C1795   1.417       .  A
C1781      C1789   1.385       .  A
C1782      C1790   1.386       .  A
C1782      C1793   1.413       .  A
C1783      C1791   1.387       .  A
C1783      C1794   1.414       .  A
C1784      C1785   1.376       .  A
C1784      H1796   1.082       .  S
C1785      H1797   1.082       .  S
C1786      C1787   1.370       .  A
C1786      H1798   1.082       .  S
C1787      H1799   1.082       .  S
C1788      C1789   1.377       .  A
C1788      H1800   1.082       .  S
C1789      H1801   1.082       .  S
C1790      C1791   1.375       .  A
C1790      H1802   1.082       .  S
C1791      H1803   1.083       .  S
C1792      C2357   1.495       .  S
C1793      C2384   1.487       .  S
C1794      C3727   1.480       .  S
C1795      C3664   1.483       .  S
N1806      C1811   1.352       .  A
N1806      C1810   1.353       .  A
N1806      H1838   1.037       .  S
N1807      C1814   1.354       .  A
N1807      C1815   1.352       .  A
N1808      C1813   1.351       .  A
N1808      C1812   1.348       .  A
N1808      H1839   1.038       .  S
N1809      C1816   1.348       .  A
N1809      C1817   1.349       .  A
C1810      C1818   1.387       .  A
C1810      C1826   1.415       .  A
C1811      C1827   1.415       .  A
C1811      C1819   1.387       .  A
C1812      C1820   1.389       .  A
C1812      C1829   1.408       .  A
C1813      C1828   1.404       .  A
C1813      C1821   1.385       .  A
C1814      C1826   1.418       .  A
C1814      C1822   1.386       .  A
C1815      C1829   1.417       .  A
C1815      C1823   1.386       .  A
C1816      C1824   1.387       .  A
C1816      C1827   1.409       .  A
C1817      C1825   1.386       .  A
C1817      C1828   1.409       .  A
C1818      C1819   1.376       .  A
C1818      H1830   1.082       .  S
C1819      H1831   1.082       .  S
C1820      C1821   1.369       .  A
C1820      H1832   1.082       .  S
C1821      H1833   1.082       .  S
C1822      C1823   1.377       .  A
C1822      H1834   1.082       .  S
C1823      H1835   1.082       .  S
C1824      C1825   1.373       .  A
C1824      H1836   1.082       .  S
C1825      H1837   1.083       .  S
C1826      C2337   1.493       .  S
C1827      C2397   1.478       .  S
C1828      C2757   1.475       .  S
C1829      C2327   1.480       .  S
N1840      C1845   1.357       .  A
N1840      C1844   1.354       .  A
N1840      H1872   1.033       .  S
N1841      C1848   1.352       .  A
N1841      C1849   1.354       .  A
N1842      C1847   1.350       .  A
N1842      C1846   1.353       .  A
N1842      H1873   1.038       .  S
N1843      C1850   1.353       .  A
N1843      C1851   1.352       .  A
C1844      C1852   1.389       .  A
C1844      C1860   1.422       .  A
C1845      C1861   1.422       .  A
C1845      C1853   1.387       .  A
C1846      C1854   1.387       .  A
C1846      C1863   1.410       .  A
C1847      C1862   1.409       .  A
C1847      C1855   1.387       .  A
C1848      C1860   1.419       .  A
C1848      C1856   1.388       .  A
C1849      C1863   1.418       .  A
C1849      C1857   1.385       .  A
C1850      C1858   1.386       .  A
C1850      C1861   1.417       .  A
C1851      C1859   1.386       .  A
C1851      C1862   1.415       .  A
C1852      C1853   1.375       .  A
C1852      H1864   1.082       .  S
C1853      H1865   1.082       .  S
C1854      C1855   1.368       .  A
C1854      H1866   1.082       .  S
C1855      H1867   1.082       .  S
C1856      C1857   1.378       .  A
C1856      H1868   1.082       .  S
C1857      H1869   1.082       .  S
C1858      C1859   1.376       .  A
C1858      H1870   1.082       .  S
C1859      H1871   1.082       .  S
C1860      C2377   1.487       .  S
C1861      C2447   1.496       .  S
C1862      C3097   1.483       .  S
C1863      C3524   1.492       .  S
N1874      C1879   1.354       .  A
N1874      C1878   1.352       .  A
N1874      H1906   1.036       .  S
N1875      C1882   1.350       .  A
N1875      C1883   1.352       .  A
N1876      C1881   1.349       .  A
N1876      C1880   1.351       .  A
N1876      H1907   1.036       .  S
N1877      C1884   1.351       .  A
N1877      C1885   1.350       .  A
C1878      C1886   1.388       .  A
C1878      C1894   1.415       .  A
C1879      C1895   1.416       .  A
C1879      C1887   1.387       .  A
C1880      C1888   1.389       .  A
C1880      C1897   1.410       .  A
C1881      C1896   1.408       .  A
C1881      C1889   1.387       .  A
C1882      C1894   1.413       .  A
C1882      C1890   1.386       .  A
C1883      C1897   1.414       .  A
C1883      C1891   1.386       .  A
C1884      C1892   1.386       .  A
C1884      C1895   1.412       .  A
C1885      C1893   1.386       .  A
C1885      C1896   1.412       .  A
C1886      C1887   1.374       .  A
C1886      H1898   1.082       .  S
C1887      H1899   1.082       .  S
C1888      C1889   1.368       .  A
C1888      H1900   1.081       .  S
C1889      H1901   1.082       .  S
C1890      C1891   1.375       .  A
C1890      H1902   1.082       .  S
C1891      H1903   1.082       .  S
C1892      C1893   1.373       .  A
C1892      H1904   1.082       .  S
C1893      H1905   1.082       .  S
C1894      C2367   1.480       .  S
C1895      C2404   1.488       .  S
C1896      C3387   1.477       .  S
C1897      C3347   1.480       .  S
N1908      C1913   1.357       .  A
N1908      C1912   1.354       .  A
N1908      H1940   1.033       .  S
N1909      C1916   1.353       .  A
N1909      C1917   1.354       .  A
N1910      C1915   1.351       .  A
N1910      C1914   1.354       .  A
N1910      H1941   1.039       .  S
N1911      C1918   1.355       .  A
N1911      C1919   1.352       .  A
C1912      C1920   1.389       .  A
C1912      C1928   1.423       .  A
C1913      C1929   1.421       .  A
C1913      C1921   1.386       .  A
C1914      C1922   1.386       .  A
C1914      C1931   1.411       .  A
C1915      C1930   1.411       .  A
C1915      C1923   1.387       .  A
C1916      C1928   1.419       .  A
C1916      C1924   1.387       .  A
C1917      C1931   1.419       .  A
C1917      C1925   1.386       .  A
C1918      C1926   1.385       .  A
C1918      C1929   1.419       .  A
C1919      C1927   1.387       .  A
C1919      C1930   1.419       .  A
C1920      C1921   1.376       .  A
C1920      H1932   1.082       .  S
C1921      H1933   1.082       .  S
C1922      C1923   1.370       .  A
C1922      H1934   1.082       .  S
C1923      H1935   1.082       .  S
C1924      C1925   1.375       .  A
C1924      H1936   1.082       .  S
C1925      H1937   1.082       .  S
C1926      C1927   1.376       .  A
C1926      H1938   1.082       .  S
C1927      H1939   1.082       .  S
C1928      C2347   1.487       .  S
C1929      C2427   1.498       .  S
C1930      C3137   1.486       .  S
C1931      C2747   1.493       .  S
O1942      C1958   1.271       .  A
O1942     Zn1948   1.991   1_455  S
C1943      O1959   1.271       .  A
C1943      O1956   1.272       .  A
C1943      C2587   1.480       .  S
O1944      C1957   1.279       .  A
O1944     Cd1951   2.110       .  S
O1945      C1963   1.267       .  A
O1945     Cd1954   2.014   1_655  S
O1946      C1960   1.274       .  A
O1946     Cd1950   2.051       .  S
O1947      C1958   1.274       .  A
O1947     Cd1950   2.061       .  S
Zn1948     O1959   1.993       .  S
Zn1948     O1961   1.924       .  S
Zn1948     O1953   1.904   1_655  S
O1949      C1960   1.275       .  A
O1949     Cd1954   2.056       .  S
Cd1950     O1952   2.027       .  S
Cd1950     O1953   1.967       .  S
Cd1951     O1955   2.117   1_655  S
Cd1951     O1964   2.117       .  S
Cd1951     O1953   2.034   1_655  S
O1952      C1962   1.269       .  A
O1953     Cd1954   1.969       .  S
Cd1954     O1956   2.059   1_455  S
O1955      C1962   1.281       .  A
C1957      O1961   1.263       .  A
C1957      C2324   1.460       .  S
C1958      C2457   1.481       .  S
C1960      C2314   1.480       .  S
C1962      C2914   1.473       .  S
C1963      O1964   1.281       .  A
C1963      C3757   1.471       .  S
C1965      C2294   1.487       .  S
C1965      N1966   1.358   1_556  A
C1965      N1970   1.359   1_556  A
N1966      C1967   1.358   1_455  A
C1967      C2307   1.492       .  S
C1967      N1968   1.361   1_655  A
N1968      C1969   1.361       .  A
C1969      C2284   1.492       .  S
C1969      N1970   1.359       .  A
N1971      C1976   1.354       .  A
N1971      C1975   1.356       .  A
N1971      H2003   1.034       .  S
N1972      C1979   1.352       .  A
N1972      C1980   1.351       .  A
N1973      C1978   1.352       .  A
N1973      C1977   1.351       .  A
N1973      H2004   1.037       .  S
N1974      C1981   1.351       .  A
N1974      C1982   1.353       .  A
C1975      C1983   1.387       .  A
C1975      C1991   1.420       .  A
C1976      C1992   1.421       .  A
C1976      C1984   1.388       .  A
C1977      C1985   1.388       .  A
C1977      C1994   1.410       .  A
C1978      C1993   1.410       .  A
C1978      C1986   1.387       .  A
C1979      C1991   1.417       .  A
C1979      C1987   1.387       .  A
C1980      C1994   1.413       .  A
C1980      C1988   1.385       .  A
C1981      C1989   1.388       .  A
C1981      C1992   1.417       .  A
C1982      C1990   1.385       .  A
C1982      C1993   1.413       .  A
C1983      C1984   1.376       .  A
C1983      H1995   1.082       .  S
C1984      H1996   1.082       .  S
C1985      C1986   1.367       .  A
C1985      H1997   1.082       .  S
C1986      H1998   1.082       .  S
C1987      C1988   1.375       .  A
C1987      H1999   1.082       .  S
C1988      H2000   1.082       .  S
C1989      C1990   1.377       .  A
C1989      H2001   1.082       .  S
C1990      H2002   1.082       .  S
C1991      C2274   1.491       .  S
C1992      C2287   1.486       .  S
C1993      C3484   1.482       .  S
C1994      C3697   1.480       .  S
C2005      C2247   1.484       .  S
C2005      N2006   1.361       .  A
C2005      N2010   1.357       .  A
N2006      C2007   1.362   1_455  A
C2007      C2254   1.483       .  S
C2007      N2008   1.358   1_655  A
N2008      C2009   1.355       .  A
C2009      C2267   1.483   1_545  S
C2009      N2010   1.355       .  A
C2011      C2277   1.492       .  S
C2011      N2012   1.358       .  A
C2011      N2016   1.364       .  A
N2012      C2013   1.356       .  A
C2013      C2237   1.486       .  S
C2013      N2014   1.356       .  A
N2014      C2015   1.359       .  A
C2015      C2224   1.492       .  S
C2015      N2016   1.365       .  A
N2017      C2022   1.354       .  A
N2017      C2021   1.352       .  A
N2017      H2049   1.038       .  S
N2018      C2025   1.349       .  A
N2018      C2026   1.352       .  A
N2019      C2024   1.348       .  A
N2019      C2023   1.349       .  A
N2019      H2050   1.036       .  S
N2020      C2027   1.350       .  A
N2020      C2028   1.349       .  A
C2021      C2029   1.388       .  A
C2021      C2037   1.416       .  A
C2022      C2038   1.413       .  A
C2022      C2030   1.385       .  A
C2023      C2031   1.388       .  A
C2023      C2040   1.409       .  A
C2024      C2039   1.406       .  A
C2024      C2032   1.387       .  A
C2025      C2037   1.414       .  A
C2025      C2033   1.387       .  A
C2026      C2040   1.414       .  A
C2026      C2034   1.385       .  A
C2027      C2035   1.385       .  A
C2027      C2038   1.408       .  A
C2028      C2036   1.386       .  A
C2028      C2039   1.409       .  A
C2029      C2030   1.375       .  A
C2029      H2041   1.082       .  S
C2030      H2042   1.082       .  S
C2031      C2032   1.372       .  A
C2031      H2043   1.082       .  S
C2032      H2044   1.083       .  S
C2033      C2034   1.378       .  A
C2033      H2045   1.082       .  S
C2034      H2046   1.082       .  S
C2035      C2036   1.374       .  A
C2035      H2047   1.082       .  S
C2036      H2048   1.082       .  S
C2037      C2244   1.481       .  S
C2038      C2227   1.482       .  S
C2039      C3634   1.472       .  S
C2040      C2714   1.480       .  S
C2051      C2194   1.494       .  S
C2051      N2052   1.362       .  A
C2051      N2056   1.360       .  A
N2052      C2053   1.363       .  A
C2053      C2207   1.496   1_545  S
C2053      N2054   1.362       .  A
N2054      C2055   1.361       .  A
C2055      C2217   1.496   1_554  S
C2055      N2056   1.361       .  A
N2057      C2062   1.354       .  A
N2057      C2061   1.356       .  A
N2057      H2089   1.035       .  S
N2058      C2065   1.354       .  A
N2058      C2066   1.353       .  A
N2059      C2064   1.352       .  A
N2059      C2063   1.350       .  A
N2059      H2090   1.034       .  S
N2060      C2067   1.349       .  A
N2060      C2068   1.353       .  A
C2061      C2069   1.387       .  A
C2061      C2077   1.420       .  A
C2062      C2078   1.419       .  A
C2062      C2070   1.388       .  A
C2063      C2071   1.389       .  A
C2063      C2080   1.413       .  A
C2064      C2079   1.410       .  A
C2064      C2072   1.386       .  A
C2065      C2077   1.420       .  A
C2065      C2073   1.386       .  A
C2066      C2080   1.419       .  A
C2066      C2074   1.386       .  A
C2067      C2075   1.388       .  A
C2067      C2078   1.415       .  A
C2068      C2076   1.384       .  A
C2068      C2079   1.413       .  A
C2069      C2070   1.373       .  A
C2069      H2081   1.082       .  S
C2070      H2082   1.082       .  S
C2071      C2072   1.369       .  A
C2071      H2083   1.082       .  S
C2072      H2084   1.082       .  S
C2073      C2074   1.378       .  A
C2073      H2085   1.082       .  S
C2074      H2086   1.082       .  S
C2075      C2076   1.376       .  A
C2075      H2087   1.082       .  S
C2076      H2088   1.082       .  S
C2077      C2197   1.498       .  S
C2078      C2234   1.481       .  S
C2079      C3997   1.484       .  S
C2080      C3287   1.481       .  S
N2091      C2096   1.357       .  A
N2091      C2095   1.352       .  A
N2091      H2123   1.035       .  S
N2092      C2099   1.350       .  A
N2092      C2100   1.352       .  A
N2093      C2098   1.348       .  A
N2093      C2097   1.349       .  A
N2093      H2124   1.037       .  S
N2094      C2101   1.351       .  A
N2094      C2102   1.350       .  A
C2095      C2103   1.389       .  A
C2095      C2111   1.420       .  A
C2096      C2112   1.419       .  A
C2096      C2104   1.386       .  A
C2097      C2105   1.387       .  A
C2097      C2114   1.406       .  A
C2098      C2113   1.407       .  A
C2098      C2106   1.388       .  A
C2099      C2111   1.414       .  A
C2099      C2107   1.387       .  A
C2100      C2114   1.412       .  A
C2100      C2108   1.386       .  A
C2101      C2109   1.386       .  A
C2101      C2112   1.412       .  A
C2102      C2110   1.386       .  A
C2102      C2113   1.412       .  A
C2103      C2104   1.377       .  A
C2103      H2115   1.082       .  S
C2104      H2116   1.082       .  S
C2105      C2106   1.371       .  A
C2105      H2117   1.082       .  S
C2106      H2118   1.082       .  S
C2107      C2108   1.374       .  A
C2107      H2119   1.082       .  S
C2108      H2120   1.083       .  S
C2109      C2110   1.372       .  A
C2109      H2121   1.082       .  S
C2110      H2122   1.082       .  S
C2111      C2297   1.481       .  S
C2112      C2214   1.490       .  S
C2113      C3437   1.474       .  S
C2114      C2317   1.476       .  S
N2125      C2130   1.356       .  A
N2125      C2129   1.354       .  A
N2125      H2157   1.034       .  S
N2126      C2133   1.349       .  A
N2126      C2134   1.351       .  A
N2127      C2132   1.348       .  A
N2127      C2131   1.350       .  A
N2127      H2158   1.034       .  S
N2128      C2135   1.352       .  A
N2128      C2136   1.352       .  A
C2129      C2137   1.389       .  A
C2129      C2145   1.420       .  A
C2130      C2146   1.420       .  A
C2130      C2138   1.387       .  A
C2131      C2139   1.388       .  A
C2131      C2148   1.408       .  A
C2132      C2147   1.407       .  A
C2132      C2140   1.388       .  A
C2133      C2145   1.414       .  A
C2133      C2141   1.388       .  A
C2134      C2148   1.412       .  A
C2134      C2142   1.385       .  A
C2135      C2143   1.387       .  A
C2135      C2146   1.417       .  A
C2136      C2144   1.385       .  A
C2136      C2147   1.414       .  A
C2137      C2138   1.375       .  A
C2137      H2149   1.082       .  S
C2138      H2150   1.082       .  S
C2139      C2140   1.365       .  A
C2139      H2151   1.082       .  S
C2140      H2152   1.082       .  S
C2141      C2142   1.374       .  A
C2141      H2153   1.082       .  S
C2142      H2154   1.083       .  S
C2143      C2144   1.375       .  A
C2143      H2155   1.082       .  S
C2144      H2156   1.082       .  S
C2145      C2264   1.480       .  S
C2146      C2204   1.493       .  S
C2147      C3534   1.475       .  S
C2148      C3337   1.474       .  S
N2159      C2164   1.355       .  A
N2159      C2163   1.352       .  A
N2159      H2191   1.036       .  S
N2160      C2167   1.348       .  A
N2160      C2168   1.350       .  A
N2161      C2166   1.346       .  A
N2161      C2165   1.348       .  A
N2161      H2192   1.038       .  S
N2162      C2169   1.350       .  A
N2162      C2170   1.350       .  A
C2163      C2171   1.387       .  A
C2163      C2179   1.416       .  A
C2164      C2180   1.419       .  A
C2164      C2172   1.388       .  A
C2165      C2173   1.385       .  A
C2165      C2182   1.400       .  A
C2166      C2181   1.404       .  A
C2166      C2174   1.389       .  A
C2167      C2179   1.410       .  A
C2167      C2175   1.387       .  A
C2168      C2182   1.408       .  A
C2168      C2176   1.385       .  A
C2169      C2177   1.387       .  A
C2169      C2180   1.414       .  A
C2170      C2178   1.386       .  A
C2170      C2181   1.413       .  A
C2171      C2172   1.374       .  A
C2171      H2183   1.082       .  S
C2172      H2184   1.082       .  S
C2173      C2174   1.370       .  A
C2173      H2185   1.082       .  S
C2174      H2186   1.082       .  S
C2175      C2176   1.374       .  A
C2175      H2187   1.082       .  S
C2176      H2188   1.082       .  S
C2177      C2178   1.375       .  A
C2177      H2189   1.082       .  S
C2178      H2190   1.082       .  S
C2179      C2257   1.476       .  S
C2180      C2304   1.487       .  S
C2181      C3057   1.471       .  S
C2182      C3107   1.471       .  S
C2193      C2194   1.408       .  A
C2193      C2198   1.403       .  A
C2193      H2200   1.083       .  S
C2194      C2195   1.412       .  A
C2195      C2196   1.404       .  A
C2195      F2202   1.357       .  S
C2196      C2197   1.403       .  A
C2196      H2201   1.083       .  S
C2197      C2198   1.408       .  A
C2198      F2199   1.357       .  S
C2203      C2204   1.402       .  A
C2203      C2208   1.402       .  A
C2203      H2210   1.083       .  S
C2204      C2205   1.404       .  A
C2205      C2206   1.402       .  A
C2205      F2212   1.358       .  S
C2206      C2207   1.410       .  A
C2206      H2211   1.083   1_565  S
C2207      C2208   1.413       .  A
C2208      F2209   1.357       .  S
C2213      C2214   1.402       .  A
C2213      C2218   1.403       .  A
C2213      H2220   1.083       .  S
C2214      C2215   1.403       .  A
C2215      C2216   1.400       .  A
C2215      F2222   1.357       .  S
C2216      C2217   1.409       .  A
C2216      H2221   1.083       .  S
C2217      C2218   1.415       .  A
C2218      F2219   1.357       .  S
C2223      C2224   1.412       .  A
C2223      C2228   1.398       .  A
C2223      H2230   1.083       .  S
C2224      C2225   1.411       .  A
C2225      C2226   1.400       .  A
C2225      F2232   1.356       .  S
C2226      C2227   1.401       .  A
C2226      H2231   1.083       .  S
C2227      C2228   1.400       .  A
C2228      F2229   1.358       .  S
C2233      C2234   1.399       .  A
C2233      C2238   1.398       .  A
C2233      H2240   1.083       .  S
C2234      C2235   1.402       .  A
C2235      C2236   1.397       .  A
C2235      F2242   1.358       .  S
C2236      C2237   1.409       .  A
C2236      H2241   1.083       .  S
C2237      C2238   1.412       .  A
C2238      F2239   1.357       .  S
C2243      C2244   1.397       .  A
C2243      C2248   1.394       .  A
C2243      H2250   1.083       .  S
C2244      C2245   1.405       .  A
C2245      C2246   1.401       .  A
C2245      F2252   1.357       .  S
C2246      C2247   1.407       .  A
C2246      H2251   1.083       .  S
C2247      C2248   1.412       .  A
C2248      F2249   1.356       .  S
C2253      C2254   1.409       .  A
C2253      C2258   1.393       .  A
C2253      H2260   1.083       .  S
C2254      C2255   1.411       .  A
C2255      C2256   1.398       .  A
C2255      F2262   1.357       .  S
C2256      C2257   1.401       .  A
C2256      H2261   1.083       .  S
C2257      C2258   1.399       .  A
C2258      F2259   1.358       .  S
C2263      C2264   1.399       .  A
C2263      C2268   1.395       .  A
C2263      H2270   1.083       .  S
C2264      C2265   1.401       .  A
C2265      C2266   1.398       .  A
C2265      F2272   1.357       .  S
C2266      C2267   1.409       .  A
C2266      H2271   1.083   1_565  S
C2267      C2268   1.411       .  A
C2268      F2269   1.356       .  S
C2273      C2274   1.404       .  A
C2273      C2278   1.404       .  A
C2273      H2280   1.083       .  S
C2274      C2275   1.402       .  A
C2275      C2276   1.398       .  A
C2275      F2282   1.357       .  S
C2276      C2277   1.410       .  A
C2276      H2281   1.083       .  S
C2277      C2278   1.411       .  A
C2278      F2279   1.357       .  S
C2283      C2284   1.408       .  A
C2283      C2288   1.397       .  A
C2283      H2290   1.082       .  S
C2284      C2285   1.415       .  A
C2285      C2286   1.402       .  A
C2285      F2292   1.357       .  S
C2286      C2287   1.401       .  A
C2286      H2291   1.083       .  S
C2287      C2288   1.401       .  A
C2288      F2289   1.357       .  S
C2293      C2294   1.409       .  A
C2293      C2298   1.399       .  A
C2293      H2300   1.083       .  S
C2294      C2295   1.412       .  A
C2295      C2296   1.396       .  A
C2295      F2302   1.357       .  S
C2296      C2297   1.399       .  A
C2296      H2301   1.083       .  S
C2297      C2298   1.402       .  A
C2298      F2299   1.357       .  S
C2303      C2304   1.401       .  A
C2303      C2308   1.398       .  A
C2303      H2310   1.083       .  S
C2304      C2305   1.402       .  A
C2305      C2306   1.401       .  A
C2305      F2312   1.357       .  S
C2306      C2307   1.412       .  A
C2306      H2311   1.083       .  S
C2307      C2308   1.412       .  A
C2308      F2309   1.357       .  S
C2313      C2314   1.408       .  A
C2313      C2318   1.396       .  A
C2313      H2320   1.083       .  S
C2314      C2315   1.414       .  A
C2315      C2316   1.394       .  A
C2315      F2322   1.357       .  S
C2316      C2317   1.397       .  A
C2316      H2321   1.083       .  S
C2317      C2318   1.402       .  A
C2318      F2319   1.358       .  S
C2323      C2324   1.407       .  A
C2323      C2328   1.393       .  A
C2323      H2330   1.084       .  S
C2324      C2325   1.400       .  A
C2325      C2326   1.398       .  A
C2325      F2332   1.357       .  S
C2326      C2327   1.407       .  A
C2326      H2331   1.083       .  S
C2327      C2328   1.400       .  A
C2328      F2329   1.358       .  S
C2333      C2334   1.407       .  A
C2333      C2338   1.403       .  A
C2333      H2340   1.083       .  S
C2334      C2335   1.414       .  A
C2335      C2336   1.401       .  A
C2335      F2342   1.357       .  S
C2336      C2337   1.401       .  A
C2336      H2341   1.083       .  S
C2337      C2338   1.407       .  A
C2338      F2339   1.357       .  S
C2343      C2344   1.410       .  A
C2343      C2348   1.400       .  A
C2343      H2350   1.083       .  S
C2344      C2345   1.414       .  A
C2345      C2346   1.399       .  A
C2345      F2352   1.357       .  S
C2346      C2347   1.400       .  A
C2346      H2351   1.083       .  S
C2347      C2348   1.403       .  A
C2348      F2349   1.357       .  S
C2353      C2354   1.408       .  A
C2353      C2358   1.403       .  A
C2353      H2360   1.083   1_455  S
C2354      C2355   1.415       .  A
C2355      C2356   1.403       .  A
C2355      F2362   1.357       .  S
C2356      C2357   1.402       .  A
C2356      H2361   1.083       .  S
C2357      C2358   1.406       .  A
C2358      F2359   1.357       .  S
C2363      C2364   1.408       .  A
C2363      C2368   1.397       .  A
C2363      H2370   1.083       .  S
C2364      C2365   1.411       .  A
C2365      C2366   1.397       .  A
C2365      F2372   1.357       .  S
C2366      C2367   1.400       .  A
C2366      H2371   1.083       .  S
C2367      C2368   1.402       .  A
C2368      F2369   1.357       .  S
C2373      C2374   1.408       .  A
C2373      C2378   1.401       .  A
C2373      H2380   1.083       .  S
C2374      C2375   1.416       .  A
C2375      C2376   1.399       .  A
C2375      F2382   1.357       .  S
C2376      C2377   1.399       .  A
C2376      H2381   1.083       .  S
C2377      C2378   1.403       .  A
C2378      F2379   1.357       .  S
C2383      C2384   1.403       .  A
C2383      C2388   1.402       .  A
C2383      H2390   1.083       .  S
C2384      C2385   1.401       .  A
C2385      C2386   1.398       .  A
C2385      F2392   1.357       .  S
C2386      C2387   1.411       .  A
C2386      H2391   1.083       .  S
C2387      C2388   1.411       .  A
C2388      F2389   1.357       .  S
C2393      C2394   1.409       .  A
C2393      C2398   1.399       .  A
C2393      H2400   1.083       .  S
C2394      C2395   1.414       .  A
C2395      C2396   1.394       .  A
C2395      F2402   1.357       .  S
C2396      C2397   1.397       .  A
C2396      H2401   1.084       .  S
C2397      C2398   1.402       .  A
C2398      F2399   1.357       .  S
C2403      C2404   1.404       .  A
C2403      C2408   1.399       .  A
C2403      H2410   1.083       .  S
C2404      C2405   1.404       .  A
C2405      C2406   1.397       .  A
C2405      F2412   1.358       .  S
C2406      C2407   1.407       .  A
C2406      H2411   1.083       .  S
C2407      C2408   1.407       .  A
C2408      F2409   1.357       .  S
C2413      C2414   1.401       .  A
C2413      C2418   1.401       .  A
C2413      H2420   1.083       .  S
C2414      C2415   1.401       .  A
C2415      C2416   1.398       .  A
C2415      F2422   1.357       .  S
C2416      C2417   1.409       .  A
C2416      H2421   1.083       .  S
C2417      C2418   1.414       .  A
C2418      F2419   1.357       .  S
C2423      C2424   1.412       .  A
C2423      C2428   1.407       .  A
C2423      H2430   1.083       .  S
C2424      C2425   1.416       .  A
C2425      C2426   1.403       .  A
C2425      F2432   1.357       .  S
C2426      C2427   1.401       .  A
C2426      H2431   1.083       .  S
C2427      C2428   1.406       .  A
C2428      F2429   1.357       .  S
C2433      C2434   1.403       .  A
C2433      C2438   1.405       .  A
C2433      H2440   1.083       .  S
C2434      C2435   1.407       .  A
C2435      C2436   1.405       .  A
C2435      F2442   1.357       .  S
C2436      C2437   1.410       .  A
C2436      H2441   1.083       .  S
C2437      C2438   1.415       .  A
C2438      F2439   1.356       .  S
C2443      C2444   1.411       .  A
C2443      C2448   1.408       .  A
C2443      H2450   1.083       .  S
C2444      C2445   1.415       .  A
C2445      C2446   1.400       .  A
C2445      F2452   1.356       .  S
C2446      C2447   1.400       .  A
C2446      H2451   1.083       .  S
C2447      C2448   1.406       .  A
C2448      F2449   1.357       .  S
C2453      C2454   1.399       .  A
C2453      C2458   1.396       .  A
C2453      H2460   1.083       .  S
C2454      C2455   1.402       .  A
C2455      C2456   1.396       .  A
C2455      F2462   1.357       .  S
C2456      C2457   1.407       .  A
C2456      H2461   1.083       .  S
C2457      C2458   1.413       .  A
C2458      F2459   1.358       .  S
C2463      C2464   1.411       .  A
C2463      C2468   1.399       .  A
C2463      H2470   1.083       .  S
C2464      C2465   1.412       .  A
C2465      C2466   1.403       .  A
C2465      F2472   1.357       .  S
C2466      C2467   1.403       .  A
C2466      H2471   1.083       .  S
C2467      C2468   1.402       .  A
C2468      F2469   1.358       .  S
C2473      C2474   1.401       .  A
C2473      C2478   1.396       .  A
C2473      H2480   1.083       .  S
C2474      C2475   1.405       .  A
C2475      C2476   1.401       .  A
C2475      F2482   1.357       .  S
C2476      C2477   1.408       .  A
C2476      H2481   1.083       .  S
C2477      C2478   1.409       .  A
C2478      F2479   1.357       .  S
C2483      C2484   1.403       .  A
C2483      C2488   1.399       .  A
C2483      H2490   1.083       .  S
C2484      C2485   1.403       .  A
C2485      C2486   1.401       .  A
C2485      F2492   1.357       .  S
C2486      C2487   1.410       .  A
C2486      H2491   1.083       .  S
C2487      C2488   1.409       .  A
C2488      F2489   1.357       .  S
C2493      C2494   1.408       .  A
C2493      C2498   1.400       .  A
C2493      H2500   1.083       .  S
C2494      C2495   1.415       .  A
C2495      C2496   1.397       .  A
C2495      F2502   1.357       .  S
C2496      C2497   1.398       .  A
C2496      H2501   1.083       .  S
C2497      C2498   1.403       .  A
C2498      F2499   1.357       .  S
C2503      C2504   1.409       .  A
C2503      C2508   1.403       .  A
C2503      H2510   1.083       .  S
C2504      C2505   1.413       .  A
C2505      C2506   1.396       .  A
C2505      F2512   1.357       .  S
C2506      C2507   1.399       .  A
C2506      H2511   1.084       .  S
C2507      C2508   1.405       .  A
C2508      F2509   1.357       .  S
C2513      C2514   1.400       .  A
C2513      C2518   1.397       .  A
C2513      H2520   1.083       .  S
C2514      C2515   1.403       .  A
C2515      C2516   1.398       .  A
C2515      F2522   1.358       .  S
C2516      C2517   1.408       .  A
C2516      H2521   1.083       .  S
C2517      C2518   1.412       .  A
C2518      F2519   1.357       .  S
C2523      C2524   1.405       .  A
C2523      C2528   1.399       .  A
C2523      H2530   1.083       .  S
C2524      C2525   1.408       .  A
C2525      C2526   1.394       .  A
C2525      F2532   1.358       .  S
C2526      C2527   1.401       .  A
C2526      H2531   1.084       .  S
C2527      C2528   1.404       .  A
C2528      F2529   1.357       .  S
C2533      C2534   1.409       .  A
C2533      C2538   1.392       .  A
C2533      H2540   1.083       .  S
C2534      C2535   1.411       .  A
C2535      C2536   1.398       .  A
C2535      F2542   1.357       .  S
C2536      C2537   1.401       .  A
C2536      H2541   1.083       .  S
C2537      C2538   1.400       .  A
C2538      F2539   1.358       .  S
C2543      C2544   1.401       .  A
C2543      C2548   1.400       .  A
C2543      H2550   1.083       .  S
C2544      C2545   1.403       .  A
C2545      C2546   1.403       .  A
C2545      F2552   1.357       .  S
C2546      C2547   1.411       .  A
C2546      H2551   1.083       .  S
C2547      C2548   1.413       .  A
C2548      F2549   1.357       .  S
C2553      C2554   1.410       .  A
C2553      C2558   1.402       .  A
C2553      H2560   1.083       .  S
C2554      C2555   1.413       .  A
C2555      C2556   1.398       .  A
C2555      F2562   1.357       .  S
C2556      C2557   1.400       .  A
C2556      H2561   1.083       .  S
C2557      C2558   1.404       .  A
C2558      F2559   1.357       .  S
C2563      C2564   1.402       .  A
C2563      C2568   1.400       .  A
C2563      H2570   1.083       .  S
C2564      C2565   1.404       .  A
C2565      C2566   1.399       .  A
C2565      F2572   1.358       .  S
C2566      C2567   1.407       .  A
C2566      H2571   1.083   1_655  S
C2567      C2568   1.411       .  A
C2568      F2569   1.357       .  S
C2573      C2574   1.402       .  A
C2573      C2578   1.401       .  A
C2573      H2580   1.083       .  S
C2574      C2575   1.402       .  A
C2575      C2576   1.398       .  A
C2575      F2582   1.357       .  S
C2576      C2577   1.409       .  A
C2576      H2581   1.083       .  S
C2577      C2578   1.411       .  A
C2578      F2579   1.357       .  S
C2583      C2584   1.400       .  A
C2583      C2588   1.396       .  A
C2583      H2590   1.084       .  S
C2584      C2585   1.400       .  A
C2585      C2586   1.396       .  A
C2585      F2592   1.358       .  S
C2586      C2587   1.410       .  A
C2586      H2591   1.083       .  S
C2587      C2588   1.409       .  A
C2588      F2589   1.357       .  S
C2593      C2594   1.406       .  A
C2593      C2598   1.394       .  A
C2593      H2600   1.083       .  S
C2594      C2595   1.413       .  A
C2595      C2596   1.401       .  A
C2595      F2602   1.357       .  S
C2596      C2597   1.402       .  A
C2596      H2601   1.083       .  S
C2597      C2598   1.401       .  A
C2598      F2599   1.357       .  S
C2603      C2604   1.401       .  A
C2603      C2608   1.401       .  A
C2603      H2610   1.083       .  S
C2604      C2605   1.403       .  A
C2605      C2606   1.400       .  A
C2605      F2612   1.357       .  S
C2606      C2607   1.409       .  A
C2606      H2611   1.083       .  S
C2607      C2608   1.414       .  A
C2608      F2609   1.357       .  S
C2613      C2614   1.400       .  A
C2613      C2618   1.400       .  A
C2613      H2620   1.083       .  S
C2614      C2615   1.401       .  A
C2615      C2616   1.396       .  A
C2615      F2622   1.357       .  S
C2616      C2617   1.408       .  A
C2616      H2621   1.083       .  S
C2617      C2618   1.414       .  A
C2618      F2619   1.357       .  S
C2623      C2624   1.408       .  A
C2623      C2628   1.398       .  A
C2623      H2630   1.083       .  S
C2624      C2625   1.410       .  A
C2625      C2626   1.399       .  A
C2625      F2632   1.357       .  S
C2626      C2627   1.401       .  A
C2626      H2631   1.083       .  S
C2627      C2628   1.403       .  A
C2628      F2629   1.358       .  S
C2633      C2634   1.410       .  A
C2633      C2638   1.399       .  A
C2633      H2640   1.083       .  S
C2634      C2635   1.413       .  A
C2635      C2636   1.402       .  A
C2635      F2642   1.357       .  S
C2636      C2637   1.402       .  A
C2636      H2641   1.083       .  S
C2637      C2638   1.401       .  A
C2638      F2639   1.357       .  S
C2643      C2644   1.405       .  A
C2643      C2648   1.401       .  A
C2643      H2650   1.083       .  S
C2644      C2645   1.404       .  A
C2645      C2646   1.398       .  A
C2645      F2652   1.358       .  S
C2646      C2647   1.407       .  A
C2646      H2651   1.083       .  S
C2647      C2648   1.408       .  A
C2648      F2649   1.357       .  S
C2653      C2654   1.401       .  A
C2653      C2658   1.397       .  A
C2653      H2660   1.083       .  S
C2654      C2655   1.403       .  A
C2655      C2656   1.397       .  A
C2655      F2662   1.357       .  S
C2656      C2657   1.405       .  A
C2656      H2661   1.083       .  S
C2657      C2658   1.411       .  A
C2658      F2659   1.358       .  S
C2663      C2664   1.409   1_565  A
C2663      C2668   1.393       .  A
C2663      H2670   1.083   1_565  S
C2664      C2665   1.411   1_545  A
C2665      C2666   1.396       .  A
C2665      F2672   1.357   1_565  S
C2666      C2667   1.400       .  A
C2666      H2671   1.083       .  S
C2667      C2668   1.400       .  A
C2668      F2669   1.358       .  S
C2673      C2674   1.400       .  A
C2673      C2678   1.396       .  A
C2673      H2680   1.083       .  S
C2674      C2675   1.402       .  A
C2675      C2676   1.398       .  A
C2675      F2682   1.357       .  S
C2676      C2677   1.407       .  A
C2676      H2681   1.083       .  S
C2677      C2678   1.410       .  A
C2678      F2679   1.357       .  S
C2683      C2684   1.400       .  A
C2683      C2688   1.398       .  A
C2683      H2690   1.083       .  S
C2684      C2685   1.402       .  A
C2685      C2686   1.398       .  A
C2685      F2692   1.358       .  S
C2686      C2687   1.410       .  A
C2686      H2691   1.083       .  S
C2687      C2688   1.413       .  A
C2688      F2689   1.357       .  S
C2693      C2694   1.401       .  A
C2693      C2698   1.401       .  A
C2693      H2700   1.083       .  S
C2694      C2695   1.402       .  A
C2695      C2696   1.400       .  A
C2695      F2702   1.357       .  S
C2696      C2697   1.410       .  A
C2696      H2701   1.083       .  S
C2697      C2698   1.413       .  A
C2698      F2699   1.356       .  S
C2703      C2704   1.401       .  A
C2703      C2708   1.401       .  A
C2703      H2710   1.083       .  S
C2704      C2705   1.402       .  A
C2705      C2706   1.399       .  A
C2705      F2712   1.358       .  S
C2706      C2707   1.411       .  A
C2706      H2711   1.083       .  S
C2707      C2708   1.413       .  A
C2708      F2709   1.356       .  S
C2713      C2714   1.404       .  A
C2713      C2718   1.399       .  A
C2713      H2720   1.083       .  S
C2714      C2715   1.400       .  A
C2715      C2716   1.397       .  A
C2715      F2722   1.357       .  S
C2716      C2717   1.411       .  A
C2716      H2721   1.083       .  S
C2717      C2718   1.408       .  A
C2718      F2719   1.357       .  S
C2723      C2724   1.407       .  A
C2723      C2728   1.396       .  A
C2723      H2730   1.083       .  S
C2724      C2725   1.410       .  A
C2725      C2726   1.393       .  A
C2725      F2732   1.357       .  S
C2726      C2727   1.398       .  A
C2726      H2731   1.083       .  S
C2727      C2728   1.402       .  A
C2728      F2729   1.358       .  S
C2733      C2734   1.407       .  A
C2733      C2738   1.389       .  A
C2733      H2740   1.083       .  S
C2734      C2735   1.412       .  A
C2735      C2736   1.396       .  A
C2735      F2742   1.358       .  S
C2736      C2737   1.399       .  A
C2736      H2741   1.083       .  S
C2737      C2738   1.399       .  A
C2738      F2739   1.358       .  S
C2743      C2744   1.402       .  A
C2743      C2748   1.405       .  A
C2743      H2750   1.083       .  S
C2744      C2745   1.409       .  A
C2745      C2746   1.394       .  A
C2745      F2752   1.358       .  S
C2746      C2747   1.399       .  A
C2746      H2751   1.083       .  S
C2747      C2748   1.412       .  A
C2748      F2749   1.357       .  S
C2753      C2754   1.403       .  A
C2753      C2758   1.390       .  A
C2753      H2760   1.084       .  S
C2754      C2755   1.403       .  A
C2755      C2756   1.400       .  A
C2755      F2762   1.357       .  S
C2756      C2757   1.404       .  A
C2756      H2761   1.083       .  S
C2757      C2758   1.400       .  A
C2758      F2759   1.358       .  S
C2763      C2764   1.409       .  A
C2763      C2768   1.399       .  A
C2763      H2770   1.083       .  S
C2764      C2765   1.412       .  A
C2765      C2766   1.394       .  A
C2765      F2772   1.357       .  S
C2766      C2767   1.398       .  A
C2766      H2771   1.083       .  S
C2767      C2768   1.403       .  A
C2768      F2769   1.358       .  S
C2773      C2774   1.407       .  A
C2773      C2778   1.395       .  A
C2773      H2780   1.083       .  S
C2774      C2775   1.413       .  A
C2775      C2776   1.397       .  A
C2775      F2782   1.357       .  S
C2776      C2777   1.398       .  A
C2776      H2781   1.083       .  S
C2777      C2778   1.402       .  A
C2778      F2779   1.358       .  S
C2783      C2784   1.399       .  A
C2783      C2788   1.392       .  A
C2783      H2790   1.084       .  S
C2784      C2785   1.401       .  A
C2785      C2786   1.397       .  A
C2785      F2792   1.357       .  S
C2786      C2787   1.409       .  A
C2786      H2791   1.083       .  S
C2787      C2788   1.409       .  A
C2788      F2789   1.357       .  S
C2793      C2794   1.409       .  A
C2793      C2798   1.395       .  A
C2793      H2800   1.083       .  S
C2794      C2795   1.409       .  A
C2795      C2796   1.399       .  A
C2795      F2802   1.357       .  S
C2796      C2797   1.402       .  A
C2796      H2801   1.083       .  S
C2797      C2798   1.400       .  A
C2798      F2799   1.357       .  S
C2803      C2804   1.400       .  A
C2803      C2808   1.399       .  A
C2803      H2810   1.083       .  S
C2804      C2805   1.402       .  A
C2805      C2806   1.396       .  A
C2805      F2812   1.358       .  S
C2806      C2807   1.409       .  A
C2806      H2811   1.083       .  S
C2807      C2808   1.413       .  A
C2808      F2809   1.357       .  S
C2813      C2814   1.408       .  A
C2813      C2818   1.401       .  A
C2813      H2820   1.083       .  S
C2814      C2815   1.416       .  A
C2815      C2816   1.398       .  A
C2815      F2822   1.358       .  S
C2816      C2817   1.399       .  A
C2816      H2821   1.083       .  S
C2817      C2818   1.403       .  A
C2818      F2819   1.357       .  S
C2823      C2824   1.402       .  A
C2823      C2828   1.399       .  A
C2823      H2830   1.083       .  S
C2824      C2825   1.401       .  A
C2825      C2826   1.397       .  A
C2825      F2832   1.357       .  S
C2826      C2827   1.409       .  A
C2826      H2831   1.083       .  S
C2827      C2828   1.411       .  A
C2828      F2829   1.357       .  S
C2833      C2834   1.410       .  A
C2833      C2838   1.399       .  A
C2833      H2840   1.083       .  S
C2834      C2835   1.412       .  A
C2835      C2836   1.403       .  A
C2835      F2842   1.357       .  S
C2836      C2837   1.404       .  A
C2836      H2841   1.083       .  S
C2837      C2838   1.402       .  A
C2838      F2839   1.357       .  S
C2843      C2844   1.409       .  A
C2843      C2848   1.397       .  A
C2843      H2850   1.083       .  S
C2844      C2845   1.412       .  A
C2845      C2846   1.400       .  A
C2845      F2852   1.356       .  S
C2846      C2847   1.401       .  A
C2846      H2851   1.083       .  S
C2847      C2848   1.402       .  A
C2848      F2849   1.358       .  S
C2853      C2854   1.402       .  A
C2853      C2858   1.400       .  A
C2853      H2860   1.083       .  S
C2854      C2855   1.401       .  A
C2855      C2856   1.396       .  A
C2855      F2862   1.357       .  S
C2856      C2857   1.409       .  A
C2856      H2861   1.083       .  S
C2857      C2858   1.411       .  A
C2858      F2859   1.357       .  S
C2863      C2864   1.402       .  A
C2863      C2868   1.396       .  A
C2863      H2870   1.083       .  S
C2864      C2865   1.407       .  A
C2865      C2866   1.403       .  A
C2865      F2872   1.357       .  S
C2866      C2867   1.409       .  A
C2866      H2871   1.083       .  S
C2867      C2868   1.409       .  A
C2868      F2869   1.356       .  S
C2873      C2874   1.401       .  A
C2873      C2878   1.400       .  A
C2873      H2880   1.083       .  S
C2874      C2875   1.399       .  A
C2875      C2876   1.393       .  A
C2875      F2882   1.358       .  S
C2876      C2877   1.409       .  A
C2876      H2881   1.083       .  S
C2877      C2878   1.412       .  A
C2878      F2879   1.357       .  S
C2883      C2884   1.409       .  A
C2883      C2888   1.395       .  A
C2883      H2890   1.082       .  S
C2884      C2885   1.413       .  A
C2885      C2886   1.401       .  A
C2885      F2892   1.357       .  S
C2886      C2887   1.402       .  A
C2886      H2891   1.083       .  S
C2887      C2888   1.400       .  A
C2888      F2889   1.357       .  S
C2893      C2894   1.409       .  A
C2893      C2898   1.398       .  A
C2893      H2900   1.083       .  S
C2894      C2895   1.413       .  A
C2895      C2896   1.398       .  A
C2895      F2902   1.357       .  S
C2896      C2897   1.399       .  A
C2896      H2901   1.083       .  S
C2897      C2898   1.402       .  A
C2898      F2899   1.357       .  S
C2903      C2904   1.409       .  A
C2903      C2908   1.396       .  A
C2903      H2910   1.083       .  S
C2904      C2905   1.411       .  A
C2905      C2906   1.397       .  A
C2905      F2912   1.357       .  S
C2906      C2907   1.399       .  A
C2906      H2911   1.083       .  S
C2907      C2908   1.400       .  A
C2908      F2909   1.358       .  S
C2913      C2914   1.402       .  A
C2913      C2918   1.402       .  A
C2913      H2920   1.083       .  S
C2914      C2915   1.409       .  A
C2915      C2916   1.396       .  A
C2915      F2922   1.358       .  S
C2916      C2917   1.400       .  A
C2916      H2921   1.083       .  S
C2917      C2918   1.407       .  A
C2918      F2919   1.357       .  S
C2923      C2924   1.400       .  A
C2923      C2928   1.394       .  A
C2923      H2930   1.083       .  S
C2924      C2925   1.412       .  A
C2925      C2926   1.400       .  A
C2925      F2932   1.358       .  S
C2926      C2927   1.400       .  A
C2926      H2931   1.083       .  S
C2927      C2928   1.409       .  A
C2928      F2929   1.358       .  S
C2933      C2934   1.409       .  A
C2933      C2938   1.403       .  A
C2933      H2940   1.083       .  S
C2934      C2935   1.416       .  A
C2935      C2936   1.402       .  A
C2935      F2942   1.356       .  S
C2936      C2937   1.401       .  A
C2936      H2941   1.083       .  S
C2937      C2938   1.404       .  A
C2938      F2939   1.357       .  S
C2943      C2944   1.410       .  A
C2943      C2948   1.402       .  A
C2943      H2950   1.083       .  S
C2944      C2945   1.413       .  A
C2945      C2946   1.403       .  A
C2945      F2952   1.357       .  S
C2946      C2947   1.403       .  A
C2946      H2951   1.083       .  S
C2947      C2948   1.403       .  A
C2948      F2949   1.357       .  S
C2953      C2954   1.411       .  A
C2953      C2958   1.404       .  A
C2953      H2960   1.083       .  S
C2954      C2955   1.413       .  A
C2955      C2956   1.397       .  A
C2955      F2962   1.356       .  S
C2956      C2957   1.399       .  A
C2956      H2961   1.083       .  S
C2957      C2958   1.404       .  A
C2958      F2959   1.357       .  S
C2963      C2964   1.411       .  A
C2963      C2968   1.404       .  A
C2963      H2970   1.083       .  S
C2964      C2965   1.414       .  A
C2965      C2966   1.405       .  A
C2965      F2972   1.357       .  S
C2966      C2967   1.403       .  A
C2966      H2971   1.083       .  S
C2967      C2968   1.404       .  A
C2968      F2969   1.357       .  S
C2973      C2974   1.411       .  A
C2973      C2978   1.405       .  A
C2973      H2980   1.083       .  S
C2974      C2975   1.413       .  A
C2975      C2976   1.402       .  A
C2975      F2982   1.356       .  S
C2976      C2977   1.402       .  A
C2976      H2981   1.083       .  S
C2977      C2978   1.405       .  A
C2978      F2979   1.357       .  S
C2983      C2984   1.408       .  A
C2983      C2988   1.399       .  A
C2983      H2990   1.083       .  S
C2984      C2985   1.413       .  A
C2985      C2986   1.403       .  A
C2985      F2992   1.357       .  S
C2986      C2987   1.402       .  A
C2986      H2991   1.083       .  S
C2987      C2988   1.403       .  A
C2988      F2989   1.358       .  S
C2993      C2994   1.409       .  A
C2993      C2998   1.399       .  A
C2993      H3000   1.083       .  S
C2994      C2995   1.414       .  A
C2995      C2996   1.397       .  A
C2995      F3002   1.357       .  S
C2996      C2997   1.399       .  A
C2996      H3001   1.083       .  S
C2997      C2998   1.402       .  A
C2998      F2999   1.357       .  S
C3003      C3004   1.409       .  A
C3003      C3008   1.400       .  A
C3003      H3010   1.083       .  S
C3004      C3005   1.413       .  A
C3005      C3006   1.401       .  A
C3005      F3012   1.357   1_554  S
C3006      C3007   1.401       .  A
C3006      H3011   1.083       .  S
C3007      C3008   1.403       .  A
C3008      F3009   1.357       .  S
C3013      C3014   1.409       .  A
C3013      C3018   1.397       .  A
C3013      H3020   1.083       .  S
C3014      C3015   1.411       .  A
C3015      C3016   1.400       .  A
C3015      F3022   1.357       .  S
C3016      C3017   1.402       .  A
C3016      H3021   1.083       .  S
C3017      C3018   1.401       .  A
C3018      F3019   1.357       .  S
C3023      C3024   1.406       .  A
C3023      C3028   1.399       .  A
C3023      H3030   1.083       .  S
C3024      C3025   1.411       .  A
C3025      C3026   1.400       .  A
C3025      F3032   1.357       .  S
C3026      C3027   1.402       .  A
C3026      H3031   1.083       .  S
C3027      C3028   1.405       .  A
C3028      F3029   1.357       .  S
C3033      C3034   1.410       .  A
C3033      C3038   1.399       .  A
C3033      H3040   1.083       .  S
C3034      C3035   1.412       .  A
C3035      C3036   1.401       .  A
C3035      F3042   1.356       .  S
C3036      C3037   1.402       .  A
C3036      H3041   1.083       .  S
C3037      C3038   1.401       .  A
C3038      F3039   1.357       .  S
C3043      C3044   1.410       .  A
C3043      C3048   1.401       .  A
C3043      H3050   1.083       .  S
C3044      C3045   1.412       .  A
C3045      C3046   1.400       .  A
C3045      F3052   1.356       .  S
C3046      C3047   1.401       .  A
C3046      H3051   1.083       .  S
C3047      C3048   1.404       .  A
C3048      F3049   1.357       .  S
C3053      C3054   1.405       .  A
C3053      C3058   1.387       .  A
C3053      H3060   1.084       .  S
C3054      C3055   1.402       .  A
C3055      C3056   1.399       .  A
C3055      F3062   1.357       .  S
C3056      C3057   1.405       .  A
C3056      H3061   1.083       .  S
C3057      C3058   1.397       .  A
C3058      F3059   1.358       .  S
C3063      C3064   1.399       .  A
C3063      C3068   1.393       .  A
C3063      H3070   1.083       .  S
C3064      C3065   1.405       .  A
C3065      C3066   1.396       .  A
C3065      F3072   1.357       .  S
C3066      C3067   1.401       .  A
C3066      H3071   1.083       .  S
C3067      C3068   1.407       .  A
C3068      F3069   1.358       .  S
C3073      C3074   1.396       .  A
C3073      C3078   1.388       .  A
C3073      H3080   1.084       .  S
C3074      C3075   1.407       .  A
C3075      C3076   1.397       .  A
C3075      F3082   1.357       .  S
C3076      C3077   1.400       .  A
C3076      H3081   1.083       .  S
C3077      C3078   1.407       .  A
C3078      F3079   1.359       .  S
C3083      C3084   1.409       .  A
C3083      C3088   1.400       .  A
C3083      H3090   1.083       .  S
C3084      C3085   1.414       .  A
C3085      C3086   1.400       .  A
C3085      F3092   1.358       .  S
C3086      C3087   1.402       .  A
C3086      H3091   1.083       .  S
C3087      C3088   1.403       .  A
C3088      F3089   1.357       .  S
C3093      C3094   1.405       .  A
C3093      C3098   1.398       .  A
C3093      H3100   1.083       .  S
C3094      C3095   1.416       .  A
C3095      C3096   1.396       .  A
C3095      F3102   1.358       .  S
C3096      C3097   1.397       .  A
C3096      H3101   1.084       .  S
C3097      C3098   1.406       .  A
C3098      F3099   1.357       .  S
C3103      C3104   1.405       .  A
C3103      C3108   1.393       .  A
C3103      H3110   1.083       .  S
C3104      C3105   1.414       .  A
C3105      C3106   1.395       .  A
C3105      F3112   1.358       .  S
C3106      C3107   1.397       .  A
C3106      H3111   1.083       .  S
C3107      C3108   1.401       .  A
C3108      F3109   1.358       .  S
C3113      C3114   1.408       .  A
C3113      C3118   1.392       .  A
C3113      H3120   1.083       .  S
C3114      C3115   1.408       .  A
C3115      C3116   1.394       .  A
C3115      F3122   1.358       .  S
C3116      C3117   1.401       .  A
C3116      H3121   1.084       .  S
C3117      C3118   1.398       .  A
C3118      F3119   1.357       .  S
C3123      C3124   1.408       .  A
C3123      C3128   1.397       .  A
C3123      H3130   1.083       .  S
C3124      C3125   1.413       .  A
C3125      C3126   1.393       .  A
C3125      F3132   1.357       .  S
C3126      C3127   1.398       .  A
C3126      H3131   1.083       .  S
C3127      C3128   1.402       .  A
C3128      F3129   1.358       .  S
C3133      C3134   1.404       .  A
C3133      C3138   1.393       .  A
C3133      H3140   1.084       .  S
C3134      C3135   1.402       .  A
C3135      C3136   1.400       .  A
C3135      F3142   1.357       .  S
C3136      C3137   1.408       .  A
C3136      H3141   1.083       .  S
C3137      C3138   1.402       .  A
C3138      F3139   1.357       .  S
C3143      C3144   1.401       .  A
C3143      C3148   1.399       .  A
C3143      H3150   1.083       .  S
C3144      C3145   1.411       .  A
C3145      C3146   1.395       .  A
C3145      F3152   1.358       .  S
C3146      C3147   1.398       .  A
C3146      H3151   1.083       .  S
C3147      C3148   1.407       .  A
C3148      F3149   1.357       .  S
C3153      C3154   1.411       .  A
C3153      C3158   1.401       .  A
C3153      H3160   1.083       .  S
C3154      C3155   1.414       .  A
C3155      C3156   1.402       .  A
C3155      F3162   1.357       .  S
C3156      C3157   1.402       .  A
C3156      H3161   1.083       .  S
C3157      C3158   1.403       .  A
C3158      F3159   1.357       .  S
C3163      C3164   1.410       .  A
C3163      C3168   1.400       .  A
C3163      H3170   1.083       .  S
C3164      C3165   1.412       .  A
C3165      C3166   1.401       .  A
C3165      F3172   1.357       .  S
C3166      C3167   1.403       .  A
C3166      H3171   1.083       .  S
C3167      C3168   1.404       .  A
C3168      F3169   1.357       .  S
C3173      C3174   1.409       .  A
C3173      C3178   1.397       .  A
C3173      H3180   1.082       .  S
C3174      C3175   1.415       .  A
C3175      C3176   1.403       .  A
C3175      F3182   1.358       .  S
C3176      C3177   1.403       .  A
C3176      H3181   1.083       .  S
C3177      C3178   1.400       .  A
C3178      F3179   1.357       .  S
C3183      C3184   1.408       .  A
C3183      C3188   1.398       .  A
C3183      H3190   1.083       .  S
C3184      C3185   1.412       .  A
C3185      C3186   1.398       .  A
C3185      F3192   1.357       .  S
C3186      C3187   1.400       .  A
C3186      H3191   1.083       .  S
C3187      C3188   1.402       .  A
C3188      F3189   1.358       .  S
C3193      C3194   1.400       .  A
C3193      C3198   1.399       .  A
C3193      H3200   1.083       .  S
C3194      C3195   1.407       .  A
C3195      C3196   1.391       .  A
C3195      F3202   1.358       .  S
C3196      C3197   1.398       .  A
C3196      H3201   1.083       .  S
C3197      C3198   1.408       .  A
C3198      F3199   1.357       .  S
C3203      C3204   1.409       .  A
C3203      C3208   1.398       .  A
C3203      H3210   1.083       .  S
C3204      C3205   1.413       .  A
C3205      C3206   1.400       .  A
C3205      F3212   1.357       .  S
C3206      C3207   1.401       .  A
C3206      H3211   1.083       .  S
C3207      C3208   1.401       .  A
C3208      F3209   1.357       .  S
C3213      C3214   1.403       .  A
C3213      C3218   1.402       .  A
C3213      H3220   1.083       .  S
C3214      C3215   1.403       .  A
C3215      C3216   1.401       .  A
C3215      F3222   1.357       .  S
C3216      C3217   1.409       .  A
C3216      H3221   1.083       .  S
C3217      C3218   1.412       .  A
C3218      F3219   1.357       .  S
C3223      C3224   1.402       .  A
C3223      C3228   1.403       .  A
C3223      H3230   1.083       .  S
C3224      C3225   1.403       .  A
C3225      C3226   1.403       .  A
C3225      F3232   1.357       .  S
C3226      C3227   1.411       .  A
C3226      H3231   1.083       .  S
C3227      C3228   1.415       .  A
C3228      F3229   1.357       .  S
C3233      C3234   1.409       .  A
C3233      C3238   1.400       .  A
C3233      H3240   1.083       .  S
C3234      C3235   1.415       .  A
C3235      C3236   1.404       .  A
C3235      F3242   1.357       .  S
C3236      C3237   1.403       .  A
C3236      H3241   1.083       .  S
C3237      C3238   1.403       .  A
C3238      F3239   1.357       .  S
C3243      C3244   1.403       .  A
C3243      C3248   1.404       .  A
C3243      H3250   1.083       .  S
C3244      C3245   1.402       .  A
C3245      C3246   1.399       .  A
C3245      F3252   1.357       .  S
C3246      C3247   1.409       .  A
C3246      H3251   1.082       .  S
C3247      C3248   1.416       .  A
C3248      F3249   1.357       .  S
C3253      C3254   1.401       .  A
C3253      C3258   1.402       .  A
C3253      H3260   1.083       .  S
C3254      C3255   1.402       .  A
C3255      C3256   1.399       .  A
C3255      F3262   1.358       .  S
C3256      C3257   1.410       .  A
C3256      H3261   1.082       .  S
C3257      C3258   1.414       .  A
C3258      F3259   1.357       .  S
C3263      C3264   1.409       .  A
C3263      C3268   1.401       .  A
C3263      H3270   1.083       .  S
C3264      C3265   1.416       .  A
C3265      C3266   1.404       .  A
C3265      F3272   1.357       .  S
C3266      C3267   1.402       .  A
C3266      H3271   1.083       .  S
C3267      C3268   1.404       .  A
C3268      F3269   1.357       .  S
C3273      C3274   1.411       .  A
C3273      C3278   1.403       .  A
C3273      H3280   1.083       .  S
C3274      C3275   1.414       .  A
C3275      C3276   1.402       .  A
C3275      F3282   1.357       .  S
C3276      C3277   1.402       .  A
C3276      H3281   1.083       .  S
C3277      C3278   1.404       .  A
C3278      F3279   1.357       .  S
C3283      C3284   1.409       .  A
C3283      C3288   1.399       .  A
C3283      H3290   1.083       .  S
C3284      C3285   1.410       .  A
C3285      C3286   1.396       .  A
C3285      F3292   1.357       .  S
C3286      C3287   1.401       .  A
C3286      H3291   1.083       .  S
C3287      C3288   1.402       .  A
C3288      F3289   1.357       .  S
C3293      C3294   1.402       .  A
C3293      C3298   1.401       .  A
C3293      H3300   1.083       .  S
C3294      C3295   1.401       .  A
C3295      C3296   1.396       .  A
C3295      F3302   1.357       .  S
C3296      C3297   1.409       .  A
C3296      H3301   1.083       .  S
C3297      C3298   1.413       .  A
C3298      F3299   1.358       .  S
C3303      C3304   1.406       .  A
C3303      C3308   1.394       .  A
C3303      H3310   1.083       .  S
C3304      C3305   1.414       .  A
C3305      C3306   1.397       .  A
C3305      F3312   1.358       .  S
C3306      C3307   1.399       .  A
C3306      H3311   1.083       .  S
C3307      C3308   1.401       .  A
C3308      F3309   1.358       .  S
C3313      C3314   1.404       .  A
C3313      C3318   1.404       .  A
C3313      H3320   1.083       .  S
C3314      C3315   1.407       .  A
C3315      C3316   1.398       .  A
C3315      F3322   1.358       .  S
C3316      C3317   1.401       .  A
C3316      H3321   1.083       .  S
C3317      C3318   1.409       .  A
C3318      F3319   1.357       .  S
C3323      C3324   1.407       .  A
C3323      C3328   1.402       .  A
C3323      H3330   1.083       .  S
C3324      C3325   1.402       .  A
C3325      C3326   1.398       .  A
C3325      F3332   1.357       .  S
C3326      C3327   1.409       .  A
C3326      H3331   1.084       .  S
C3327      C3328   1.404       .  A
C3328      F3329   1.357       .  S
C3333      C3334   1.402       .  A
C3333      C3338   1.397       .  A
C3333      H3340   1.084       .  S
C3334      C3335   1.404       .  A
C3335      C3336   1.391       .  A
C3335      F3342   1.358       .  S
C3336      C3337   1.399       .  A
C3336      H3341   1.083       .  S
C3337      C3338   1.404       .  A
C3338      F3339   1.357       .  S
C3343      C3344   1.407       .  A
C3343      C3348   1.394       .  A
C3343      H3350   1.083       .  S
C3344      C3345   1.412       .  A
C3345      C3346   1.397       .  A
C3345      F3352   1.358       .  S
C3346      C3347   1.400       .  A
C3346      H3351   1.083       .  S
C3347      C3348   1.403       .  A
C3348      F3349   1.358       .  S
C3353      C3354   1.400       .  A
C3353      C3358   1.395       .  A
C3353      H3360   1.083       .  S
C3354      C3355   1.409       .  A
C3355      C3356   1.400       .  A
C3355      F3362   1.357       .  S
C3356      C3357   1.401       .  A
C3356      H3361   1.083       .  S
C3357      C3358   1.407       .  A
C3358      F3359   1.358       .  S
C3363      C3364   1.409       .  A
C3363      C3368   1.396       .  A
C3363      H3370   1.083       .  S
C3364      C3365   1.410       .  A
C3365      C3366   1.395       .  A
C3365      F3372   1.358       .  S
C3366      C3367   1.400       .  A
C3366      H3371   1.084       .  S
C3367      C3368   1.400       .  A
C3368      F3369   1.357       .  S
C3373      C3374   1.399       .  A
C3373      C3378   1.394       .  A
C3373      H3380   1.083       .  S
C3374      C3375   1.405       .  A
C3375      C3376   1.398       .  A
C3375      F3382   1.358       .  S
C3376      C3377   1.402       .  A
C3376      H3381   1.083       .  S
C3377      C3378   1.405       .  A
C3378      F3379   1.357       .  S
C3383      C3384   1.405       .  A
C3383      C3388   1.389       .  A
C3383      H3390   1.084       .  S
C3384      C3385   1.403       .  A
C3385      C3386   1.397       .  A
C3385      F3392   1.357       .  S
C3386      C3387   1.406       .  A
C3386      H3391   1.083       .  S
C3387      C3388   1.400       .  A
C3388      F3389   1.358       .  S
C3393      C3394   1.404       .  A
C3393      C3398   1.393       .  A
C3393      H3400   1.084       .  S
C3394      C3395   1.403       .  A
C3395      C3396   1.400       .  A
C3395      F3402   1.357       .  S
C3396      C3397   1.404       .  A
C3396      H3401   1.083       .  S
C3397      C3398   1.400       .  A
C3398      F3399   1.357       .  S
C3403      C3404   1.406       .  A
C3403      C3408   1.396       .  A
C3403      H3410   1.083       .  S
C3404      C3405   1.416       .  A
C3405      C3406   1.393       .  A
C3405      F3412   1.358       .  S
C3406      C3407   1.396       .  A
C3406      H3411   1.084       .  S
C3407      C3408   1.403       .  A
C3408      F3409   1.357       .  S
C3413      C3414   1.406       .  A
C3413      C3418   1.396       .  A
C3413      H3420   1.083       .  S
C3414      C3415   1.415       .  A
C3415      C3416   1.397       .  A
C3415      F3422   1.358       .  S
C3416      C3417   1.398       .  A
C3416      H3421   1.083       .  S
C3417      C3418   1.403       .  A
C3418      F3419   1.358       .  S
C3423      C3424   1.408       .  A
C3423      C3428   1.402       .  A
C3423      H3430   1.083       .  S
C3424      C3425   1.414       .  A
C3425      C3426   1.397       .  A
C3425      F3432   1.357       .  S
C3426      C3427   1.399       .  A
C3426      H3431   1.083       .  S
C3427      C3428   1.404       .  A
C3428      F3429   1.358       .  S
C3433      C3434   1.402       .  A
C3433      C3438   1.398       .  A
C3433      H3440   1.083       .  S
C3434      C3435   1.407       .  A
C3435      C3436   1.390       .  A
C3435      F3442   1.358       .  S
C3436      C3437   1.397       .  A
C3436      H3441   1.084       .  S
C3437      C3438   1.406       .  A
C3438      F3439   1.358       .  S
C3443      C3444   1.405       .  A
C3443      C3448   1.395       .  A
C3443      H3450   1.083       .  S
C3444      C3445   1.401       .  A
C3445      C3446   1.390       .  A
C3445      F3452   1.358       .  S
C3446      C3447   1.403       .  A
C3446      H3451   1.084       .  S
C3447      C3448   1.399       .  A
C3448      F3449   1.357       .  S
C3453      C3454   1.401       .  A
C3453      C3458   1.397       .  A
C3453      H3460   1.083       .  S
C3454      C3455   1.404       .  A
C3455      C3456   1.388       .  A
C3455      F3462   1.358       .  S
C3456      C3457   1.397       .  A
C3456      H3461   1.084       .  S
C3457      C3458   1.404       .  A
C3458      F3459   1.357       .  S
C3463      C3464   1.407       .  A
C3463      C3468   1.401       .  A
C3463      H3470   1.083       .  S
C3464      C3465   1.413       .  A
C3465      C3466   1.398       .  A
C3465      F3472   1.358       .  S
C3466      C3467   1.400       .  A
C3466      H3471   1.083       .  S
C3467      C3468   1.404       .  A
C3468      F3469   1.357       .  S
C3473      C3474   1.407       .  A
C3473      C3478   1.395       .  A
C3473      H3480   1.083       .  S
C3474      C3475   1.415       .  A
C3475      C3476   1.394       .  A
C3475      F3482   1.357       .  S
C3476      C3477   1.397       .  A
C3476      H3481   1.083       .  S
C3477      C3478   1.402       .  A
C3478      F3479   1.358       .  S
C3483      C3484   1.402       .  A
C3483      C3488   1.400       .  A
C3483      H3490   1.083       .  S
C3484      C3485   1.400       .  A
C3485      C3486   1.396       .  A
C3485      F3492   1.357       .  S
C3486      C3487   1.409       .  A
C3486      H3491   1.083       .  S
C3487      C3488   1.412       .  A
C3488      F3489   1.358       .  S
C3493      C3494   1.406       .  A
C3493      C3498   1.399       .  A
C3493      H3500   1.083       .  S
C3494      C3495   1.413       .  A
C3495      C3496   1.396       .  A
C3495      F3502   1.358       .  S
C3496      C3497   1.398       .  A
C3496      H3501   1.083       .  S
C3497      C3498   1.405       .  A
C3498      F3499   1.358       .  S
C3503      C3504   1.409       .  A
C3503      C3508   1.398       .  A
C3503      H3510   1.083       .  S
C3504      C3505   1.412       .  A
C3505      C3506   1.396       .  A
C3505      F3512   1.357       .  S
C3506      C3507   1.398       .  A
C3506      H3511   1.083       .  S
C3507      C3508   1.401       .  A
C3508      F3509   1.358       .  S
C3513      C3514   1.408       .  A
C3513      C3518   1.395       .  A
C3513      H3520   1.084       .  S
C3514      C3515   1.404       .  A
C3515      C3516   1.402       .  A
C3515      F3522   1.357       .  S
C3516      C3517   1.406       .  A
C3516      H3521   1.083       .  S
C3517      C3518   1.401       .  A
C3518      F3519   1.358       .  S
C3523      C3524   1.411       .  A
C3523      C3528   1.403       .  A
C3523      H3530   1.083       .  S
C3524      C3525   1.402       .  A
C3525      C3526   1.396       .  A
C3525      F3532   1.357       .  S
C3526      C3527   1.408       .  A
C3526      H3531   1.084       .  S
C3527      C3528   1.402       .  A
C3528      F3529   1.357       .  S
C3533      C3534   1.399       .  A
C3533      C3538   1.393       .  A
C3533      H3540   1.084       .  S
C3534      C3535   1.401       .  A
C3535      C3536   1.396       .  A
C3535      F3542   1.357       .  S
C3536      C3537   1.408       .  A
C3536      H3541   1.083       .  S
C3537      C3538   1.410       .  A
C3538      F3539   1.358       .  S
C3543      C3544   1.407       .  A
C3543      C3548   1.390       .  A
C3543      H3550   1.083       .  S
C3544      C3545   1.411       .  A
C3545      C3546   1.398       .  A
C3545      F3552   1.358       .  S
C3546      C3547   1.401       .  A
C3546      H3551   1.083       .  S
C3547      C3548   1.399       .  A
C3548      F3549   1.358       .  S
C3553      C3554   1.401       .  A
C3553      C3558   1.398       .  A
C3553      H3560   1.083       .  S
C3554      C3555   1.409       .  A
C3555      C3556   1.403       .  A
C3555      F3562   1.357       .  S
C3556      C3557   1.403       .  A
C3556      H3561   1.083       .  S
C3557      C3558   1.408       .  A
C3558      F3559   1.358       .  S
C3563      C3564   1.398       .  A
C3563      C3568   1.394       .  A
C3563      H3570   1.083       .  S
C3564      C3565   1.401       .  A
C3565      C3566   1.394       .  A
C3565      F3572   1.357       .  S
C3566      C3567   1.404       .  A
C3566      H3571   1.083       .  S
C3567      C3568   1.412       .  A
C3568      F3569   1.358       .  S
C3573      C3574   1.405       .  A
C3573      C3578   1.402       .  A
C3573      H3580   1.083       .  S
C3574      C3575   1.403       .  A
C3575      C3576   1.396       .  A
C3575      F3582   1.358       .  S
C3576      C3577   1.404       .  A
C3576      H3581   1.084       .  S
C3577      C3578   1.405       .  A
C3578      F3579   1.357       .  S
C3583      C3584   1.402       .  A
C3583      C3588   1.402       .  A
C3583      H3590   1.083       .  S
C3584      C3585   1.410       .  A
C3585      C3586   1.395       .  A
C3585      F3592   1.358       .  S
C3586      C3587   1.400       .  A
C3586      H3591   1.083       .  S
C3587      C3588   1.410       .  A
C3588      F3589   1.357       .  S
C3593      C3594   1.410       .  A
C3593      C3598   1.399       .  A
C3593      H3600   1.083       .  S
C3594      C3595   1.408       .  A
C3595      C3596   1.397       .  A
C3595      F3602   1.357       .  S
C3596      C3597   1.405       .  A
C3596      H3601   1.083       .  S
C3597      C3598   1.402       .  A
C3598      F3599   1.357       .  S
C3603      C3604   1.408       .  A
C3603      C3608   1.398       .  A
C3603      H3610   1.083       .  S
C3604      C3605   1.414       .  A
C3605      C3606   1.399       .  A
C3605      F3612   1.358       .  S
C3606      C3607   1.400       .  A
C3606      H3611   1.083       .  S
C3607      C3608   1.403       .  A
C3608      F3609   1.357       .  S
C3613      C3614   1.405       .  A
C3613      C3618   1.394       .  A
C3613      H3620   1.084       .  S
C3614      C3615   1.402       .  A
C3615      C3616   1.402       .  A
C3615      F3622   1.357       .  S
C3616      C3617   1.408       .  A
C3616      H3621   1.083       .  S
C3617      C3618   1.401       .  A
C3618      F3619   1.357       .  S
C3623      C3624   1.401       .  A
C3623      C3628   1.400       .  A
C3623      H3630   1.083       .  S
C3624      C3625   1.409       .  A
C3625      C3626   1.390       .  A
C3625      F3632   1.358       .  S
C3626      C3627   1.397       .  A
C3626      H3631   1.084       .  S
C3627      C3628   1.410       .  A
C3628      F3629   1.358       .  S
C3633      C3634   1.397       .  A
C3633      C3638   1.396       .  A
C3633      H3640   1.083       .  S
C3634      C3635   1.402       .  A
C3635      C3636   1.392       .  A
C3635      F3642   1.358       .  S
C3636      C3637   1.403       .  A
C3636      H3641   1.083       .  S
C3637      C3638   1.413       .  A
C3638      F3639   1.358       .  S
C3643      C3644   1.410       .  A
C3643      C3648   1.395       .  A
C3643      H3650   1.083       .  S
C3644      C3645   1.410       .  A
C3645      C3646   1.395       .  A
C3645      F3652   1.357       .  S
C3646      C3647   1.399       .  A
C3646      H3651   1.083       .  S
C3647      C3648   1.400       .  A
C3648      F3649   1.358       .  S
C3653      C3654   1.398       .  A
C3653      C3658   1.391       .  A
C3653      H3660   1.084       .  S
C3654      C3655   1.408       .  A
C3655      C3656   1.400       .  A
C3655      F3662   1.357       .  S
C3656      C3657   1.401       .  A
C3656      H3661   1.083       .  S
C3657      C3658   1.407       .  A
C3658      F3659   1.358       .  S
C3663      C3664   1.399       .  A
C3663      C3668   1.395       .  A
C3663      H3670   1.083       .  S
C3664      C3665   1.406       .  A
C3665      C3666   1.403       .  A
C3665      F3672   1.357       .  S
C3666      C3667   1.404       .  A
C3666      H3671   1.083       .  S
C3667      C3668   1.407       .  A
C3668      F3669   1.358       .  S
C3673      C3674   1.398       .  A
C3673      C3678   1.391       .  A
C3673      H3680   1.084       .  S
C3674      C3675   1.409       .  A
C3675      C3676   1.406       .  A
C3675      F3682   1.357       .  S
C3676      C3677   1.403       .  A
C3676      H3681   1.083       .  S
C3677      C3678   1.407       .  A
C3678      F3679   1.358       .  S
C3683      C3684   1.411       .  A
C3683      C3688   1.397       .  A
C3683      H3690   1.083       .  S
C3684      C3685   1.407       .  A
C3685      C3686   1.397       .  A
C3685      F3692   1.357       .  S
C3686      C3687   1.404       .  A
C3686      H3691   1.084       .  S
C3687      C3688   1.399       .  A
C3688      F3689   1.357       .  S
C3693      C3694   1.407       .  A
C3693      C3698   1.395       .  A
C3693      H3700   1.083       .  S
C3694      C3695   1.409       .  A
C3695      C3696   1.397       .  A
C3695      F3702   1.358       .  S
C3696      C3697   1.403       .  A
C3696      H3701   1.083       .  S
C3697      C3698   1.401       .  A
C3698      F3699   1.357       .  S
C3703      C3704   1.409       .  A
C3703      C3708   1.395       .  A
C3703      H3710   1.083       .  S
C3704      C3705   1.412       .  A
C3705      C3706   1.396       .  A
C3705      F3712   1.357       .  S
C3706      C3707   1.399       .  A
C3706      H3711   1.083       .  S
C3707      C3708   1.400       .  A
C3708      F3709   1.357       .  S
C3713      C3714   1.403       .  A
C3713      C3718   1.403       .  A
C3713      H3720   1.083       .  S
C3714      C3715   1.407       .  A
C3715      C3716   1.399       .  A
C3715      F3722   1.358       .  S
C3716      C3717   1.402       .  A
C3716      H3721   1.083       .  S
C3717      C3718   1.407       .  A
C3718      F3719   1.357       .  S
C3723      C3724   1.402       .  A
C3723      C3728   1.402       .  A
C3723      H3730   1.083       .  S
C3724      C3725   1.409       .  A
C3725      C3726   1.390       .  A
C3725      F3732   1.359       .  S
C3726      C3727   1.397       .  A
C3726      H3731   1.084       .  S
C3727      C3728   1.407       .  A
C3728      F3729   1.357       .  S
C3733      C3734   1.396       .  A
C3733      C3738   1.392       .  A
C3733      H3740   1.083       .  S
C3734      C3735   1.403       .  A
C3735      C3736   1.396       .  A
C3735      F3742   1.358       .  S
C3736      C3737   1.406       .  A
C3736      H3741   1.083       .  S
C3737      C3738   1.414       .  A
C3738      F3739   1.358       .  S
C3743      C3744   1.406       .  A
C3743      C3748   1.393       .  A
C3743      H3750   1.084       .  S
C3744      C3745   1.404       .  A
C3745      C3746   1.401       .  A
C3745      F3752   1.357       .  S
C3746      C3747   1.406       .  A
C3746      H3751   1.083       .  S
C3747      C3748   1.401       .  A
C3748      F3749   1.358       .  S
C3753      C3754   1.399       .  A
C3753      C3758   1.395       .  A
C3753      H3760   1.083       .  S
C3754      C3755   1.411       .  A
C3755      C3756   1.401       .  A
C3755      F3762   1.358       .  S
C3756      C3757   1.401       .  A
C3756      H3761   1.083       .  S
C3757      C3758   1.409       .  A
C3758      F3759   1.358       .  S
C3763      C3764   1.398       .  A
C3763      C3768   1.395       .  A
C3763      H3770   1.083       .  S
C3764      C3765   1.401       .  A
C3765      C3766   1.395       .  A
C3765      F3772   1.358       .  S
C3766      C3767   1.407       .  A
C3766      H3771   1.083       .  S
C3767      C3768   1.414       .  A
C3768      F3769   1.358       .  S
C3773      C3774   1.404       .  A
C3773      C3778   1.403       .  A
C3773      H3780   1.083       .  S
C3774      C3775   1.403       .  A
C3775      C3776   1.398       .  A
C3775      F3782   1.358       .  S
C3776      C3777   1.405       .  A
C3776      H3781   1.084       .  S
C3777      C3778   1.405       .  A
C3778      F3779   1.357       .  S
C3783      C3784   1.400       .  A
C3783      C3788   1.399       .  A
C3783      H3790   1.083       .  S
C3784      C3785   1.401       .  A
C3785      C3786   1.399       .  A
C3785      F3792   1.357       .  S
C3786      C3787   1.409       .  A
C3786      H3791   1.083       .  S
C3787      C3788   1.414       .  A
C3788      F3789   1.358       .  S
C3793      C3794   1.399       .  A
C3793      C3798   1.394       .  A
C3793      H3800   1.083       .  S
C3794      C3795   1.405       .  A
C3795      C3796   1.399       .  A
C3795      F3802   1.357       .  S
C3796      C3797   1.402       .  A
C3796      H3801   1.083       .  S
C3797      C3798   1.407       .  A
C3798      F3799   1.358       .  S
C3803      C3804   1.405       .  A
C3803      C3808   1.393       .  A
C3803      H3810   1.084       .  S
C3804      C3805   1.403       .  A
C3805      C3806   1.402       .  A
C3805      F3812   1.357       .  S
C3806      C3807   1.406       .  A
C3806      H3811   1.083       .  S
C3807      C3808   1.400       .  A
C3808      F3809   1.357       .  S
C3813      C3814   1.403       .  A
C3813      C3818   1.400       .  A
C3813      H3820   1.083       .  S
C3814      C3815   1.403       .  A
C3815      C3816   1.399       .  A
C3815      F3822   1.357       .  S
C3816      C3817   1.405       .  A
C3816      H3821   1.084       .  S
C3817      C3818   1.405       .  A
C3818      F3819   1.357       .  S
C3823      C3824   1.399       .  A
C3823      C3828   1.391       .  A
C3823      H3830   1.084       .  S
C3824      C3825   1.407       .  A
C3825      C3826   1.402       .  A
C3825      F3832   1.357       .  S
C3826      C3827   1.403       .  A
C3826      H3831   1.083       .  S
C3827      C3828   1.407       .  A
C3828      F3829   1.358       .  S
C3833      C3834   1.402       .  A
C3833      C3838   1.402       .  A
C3833      H3840   1.083       .  S
C3834      C3835   1.405       .  A
C3835      C3836   1.392       .  A
C3835      F3842   1.358       .  S
C3836      C3837   1.399       .  A
C3836      H3841   1.083       .  S
C3837      C3838   1.408       .  A
C3838      F3839   1.358       .  S
C3843      C3844   1.403       .  A
C3843      C3848   1.399       .  A
C3843      H3850   1.083       .  S
C3844      C3845   1.400       .  A
C3845      C3846   1.397       .  A
C3845      F3852   1.357       .  S
C3846      C3847   1.410       .  A
C3846      H3851   1.083       .  S
C3847      C3848   1.410       .  A
C3848      F3849   1.358       .  S
C3853      C3854   1.399       .  A
C3853      C3858   1.396       .  A
C3853      H3860   1.083       .  S
C3854      C3855   1.406       .  A
C3855      C3856   1.398       .  A
C3855      F3862   1.357       .  S
C3856      C3857   1.404       .  A
C3856      H3861   1.083       .  S
C3857      C3858   1.411       .  A
C3858      F3859   1.358       .  S
C3863      C3864   1.409       .  A
C3863      C3868   1.403       .  A
C3863      H3870   1.083       .  S
C3864      C3865   1.401       .  A
C3865      C3866   1.394       .  A
C3865      F3872   1.357       .  S
C3866      C3867   1.407       .  A
C3866      H3871   1.084       .  S
C3867      C3868   1.404       .  A
C3868      F3869   1.357       .  S
C3873      C3874   1.410       .  A
C3873      C3878   1.399       .  A
C3873      H3880   1.083       .  S
C3874      C3875   1.413       .  A
C3875      C3876   1.402       .  A
C3875      F3882   1.356       .  S
C3876      C3877   1.402       .  A
C3876      H3881   1.083       .  S
C3877      C3878   1.402       .  A
C3878      F3879   1.357       .  S
C3883      C3884   1.409       .  A
C3883      C3888   1.402       .  A
C3883      H3890   1.083       .  S
C3884      C3885   1.414       .  A
C3885      C3886   1.402       .  A
C3885      F3892   1.357   1_455  S
C3886      C3887   1.402       .  A
C3886      H3891   1.083       .  S
C3887      C3888   1.404       .  A
C3888      F3889   1.357       .  S
C3893      C3894   1.410       .  A
C3893      C3898   1.401       .  A
C3893      H3900   1.083       .  S
C3894      C3895   1.413       .  A
C3895      C3896   1.402       .  A
C3895      F3902   1.356       .  S
C3896      C3897   1.402       .  A
C3896      H3901   1.083       .  S
C3897      C3898   1.404       .  A
C3898      F3899   1.357       .  S
C3903      C3904   1.411       .  A
C3903      C3908   1.403       .  A
C3903      H3910   1.083       .  S
C3904      C3905   1.414       .  A
C3905      C3906   1.401       .  A
C3905      F3912   1.356       .  S
C3906      C3907   1.401       .  A
C3906      H3911   1.083       .  S
C3907      C3908   1.403       .  A
C3908      F3909   1.357       .  S
C3913      C3914   1.410       .  A
C3913      C3918   1.406       .  A
C3913      H3920   1.083       .  S
C3914      C3915   1.413       .  A
C3915      C3916   1.401       .  A
C3915      F3922   1.357   1_554  S
C3916      C3917   1.402       .  A
C3916      H3921   1.083       .  S
C3917      C3918   1.406       .  A
C3918      F3919   1.357       .  S
C3923      C3924   1.411   1_455  A
C3923      C3928   1.403       .  A
C3923      H3930   1.083       .  S
C3924      C3925   1.416   1_655  A
C3925      C3926   1.401       .  A
C3925      F3932   1.356   1_455  S
C3926      C3927   1.400       .  A
C3926      H3931   1.083       .  S
C3927      C3928   1.404       .  A
C3928      F3929   1.357       .  S
C3933      C3934   1.411       .  A
C3933      C3938   1.399       .  A
C3933      H3940   1.083       .  S
C3934      C3935   1.413       .  A
C3935      C3936   1.402       .  A
C3935      F3942   1.357       .  S
C3936      C3937   1.403       .  A
C3936      H3941   1.083       .  S
C3937      C3938   1.401       .  A
C3938      F3939   1.357       .  S
C3943      C3944   1.408       .  A
C3943      C3948   1.398       .  A
C3943      H3950   1.083       .  S
C3944      C3945   1.410       .  A
C3945      C3946   1.403       .  A
C3945      F3952   1.357       .  S
C3946      C3947   1.404       .  A
C3946      H3951   1.083       .  S
C3947      C3948   1.404       .  A
C3948      F3949   1.358       .  S
C3953      C3954   1.411       .  A
C3953      C3958   1.401       .  A
C3953      H3960   1.083       .  S
C3954      C3955   1.414       .  A
C3955      C3956   1.402       .  A
C3955      F3962   1.357       .  S
C3956      C3957   1.402       .  A
C3956      H3961   1.083       .  S
C3957      C3958   1.403       .  A
C3958      F3959   1.357       .  S
C3963      C3964   1.401       .  A
C3963      C3968   1.402       .  A
C3963      H3970   1.083       .  S
C3964      C3965   1.403       .  A
C3965      C3966   1.400       .  A
C3965      F3972   1.357       .  S
C3966      C3967   1.410       .  A
C3966      H3971   1.083       .  S
C3967      C3968   1.414       .  A
C3968      F3969   1.357       .  S
C3973      C3974   1.411       .  A
C3973      C3978   1.400       .  A
C3973      H3980   1.083       .  S
C3974      C3975   1.414       .  A
C3975      C3976   1.401       .  A
C3975      F3982   1.357       .  S
C3976      C3977   1.402       .  A
C3976      H3981   1.083       .  S
C3977      C3978   1.403       .  A
C3978      F3979   1.358       .  S
C3983      C3984   1.409       .  A
C3983      C3988   1.400       .  A
C3983      H3990   1.083       .  S
C3984      C3985   1.412       .  A
C3985      C3986   1.404       .  A
C3985      F3992   1.357       .  S
C3986      C3987   1.404       .  A
C3986      H3991   1.083       .  S
C3987      C3988   1.403       .  A
C3988      F3989   1.357       .  S
C3993      C3994   1.405       .  A
C3993      C3998   1.399       .  A
C3993      H4000   1.083       .  S
C3994      C3995   1.414       .  A
C3995      C3996   1.399       .  A
C3995      F4002   1.357       .  S
C3996      C3997   1.399       .  A
C3996      H4001   1.083       .  S
C3997      C3998   1.405       .  A
C3998      F3999   1.357       .  S
C4003      C4004   1.402       .  A
C4003      C4008   1.403       .  A
C4003      H4010   1.083       .  S
C4004      C4005   1.411       .  A
C4005      C4006   1.393       .  A
C4005      F4012   1.358       .  S
C4006      C4007   1.399       .  A
C4006      H4011   1.083       .  S
C4007      C4008   1.413       .  A
C4008      F4009   1.358       .  S
C4013      C4014   1.410       .  A
C4013      C4018   1.398       .  A
C4013      H4020   1.083       .  S
C4014      C4015   1.413       .  A
C4015      C4016   1.396       .  A
C4015      F4022   1.358       .  S
C4016      C4017   1.400       .  A
C4016      H4021   1.084       .  S
C4017      C4018   1.401       .  A
C4018      F4019   1.357       .  S
C4023      C4024   1.404       .  A
C4023      C4028   1.394       .  A
C4023      H4030   1.083       .  S
C4024      C4025   1.412       .  A
C4025      C4026   1.394       .  A
C4025      F4032   1.358       .  S
C4026      C4027   1.397       .  A
C4026      H4031   1.083       .  S
C4027      C4028   1.402       .  A
C4028      F4029   1.357       .  S
C4033      C4034   1.403       .  A
C4033      C4038   1.405       .  A
C4033      H4040   1.083       .  S
C4034      C4035   1.407       .  A
C4035      C4036   1.390       .  A
C4035      F4042   1.357       .  S
C4036      C4037   1.397       .  A
C4036      H4041   1.084       .  S
C4037      C4038   1.408       .  A
C4038      F4039   1.357       .  S
C4043      C4044   1.407       .  A
C4043      C4048   1.393       .  A
C4043      H4050   1.084       .  S
C4044      C4045   1.403       .  A
C4045      C4046   1.401       .  A
C4045      F4052   1.357       .  S
C4046      C4047   1.405       .  A
C4046      H4051   1.083       .  S
C4047      C4048   1.400       .  A
C4048      F4049   1.358       .  S
C4053      C4054   1.407       .  A
C4053      C4058   1.402       .  A
C4053      H4060   1.083       .  S
C4054      C4055   1.416       .  A
C4055      C4056   1.400       .  A
C4055      F4062   1.358       .  S
C4056      C4057   1.400       .  A
C4056      H4061   1.083       .  S
C4057      C4058   1.404       .  A
C4058      F4059   1.357       .  S
C4063      C4064   1.402       .  A
C4063      C4068   1.402       .  A
C4063      H4070   1.083       .  S
C4064      C4065   1.407       .  A
C4065      C4066   1.392       .  A
C4065      F4072   1.358       .  S
C4066      C4067   1.398       .  A
C4066      H4071   1.083       .  S
C4067      C4068   1.408       .  A
C4068      F4069   1.357       .  S
C4073      C4074   1.410       .  A
C4073      C4078   1.400       .  A
C4073      H4080   1.083       .  S
C4074      C4075   1.414       .  A
C4075      C4076   1.400       .  A
C4075      F4082   1.358       .  S
C4076      C4077   1.401       .  A
C4076      H4081   1.083       .  S
C4077      C4078   1.403       .  A
C4078      F4079   1.357       .  S
C4083      C4084   1.409       .  A
C4083      C4088   1.397       .  A
C4083      H4090   1.083       .  S
C4084      C4085   1.412       .  A
C4085      C4086   1.398       .  A
C4085      F4092   1.357       .  S
C4086      C4087   1.400       .  A
C4086      H4091   1.083       .  S
C4087      C4088   1.402       .  A
C4088      F4089   1.358       .  S
C4093      C4094   1.403       .  A
C4093      C4098   1.398       .  A
C4093      H4100   1.083       .  S
C4094      C4095   1.401       .  A
C4095      C4096   1.394       .  A
C4095      F4102   1.357       .  S
C4096      C4097   1.404       .  A
C4096      H4101   1.084       .  S
C4097      C4098   1.403       .  A
C4098      F4099   1.357       .  S
C4103      C4104   1.405       .  A
C4103      C4108   1.391       .  A
C4103      H4110   1.084       .  S
C4104      C4105   1.402       .  A
C4105      C4106   1.397       .  A
C4105      F4112   1.357       .  S
C4106      C4107   1.405       .  A
C4106      H4111   1.083       .  S
C4107      C4108   1.401       .  A
C4108      F4109   1.358       .  S
