geometry optimzed in LAMMPS
_audit_creation_date              2020-11-30 
_audit_creation_method            'lammps2cif' 
_symmetry_space_group_name_H-M    'P1' 
_symmetry_Int_Tables_number       1 
_symmetry_cell_setting            triclinic 
loop_ 
_symmetry_equiv_pos_as_xyz 
  x,y,z 
_cell_length_a                    52.60934601 
_cell_length_b                    53.54078693956934 
_cell_length_c                    53.04011829148885 
_cell_angle_alpha                 90.34247496240206 
_cell_angle_beta                  90.42649668545327 
_cell_angle_gamma                 89.39578464295467 
loop_ 
_atom_site_label 
_atom_site_type_symbol 
_atom_site_fract_x 
_atom_site_fract_y 
_atom_site_fract_z 
_atom_site_charge 
O1          O  0.55060145  0.97064330  0.48306321    -0.78400
O2          O  0.45876738  0.00310759  0.52769262    -0.78500
O3          O  0.51481974  0.97135788  0.53270863    -0.78500
O4          O  0.48219301  0.96777199  0.45442733    -0.78400
O5          O  0.48650794  0.99470523  0.54903888    -0.78500
O6          O  0.52022590  0.97624582  0.44007793    -0.78500
O7          O  0.45069139  0.98808400  0.48998311    -0.78400
O8          O  0.55931202  0.99054654  0.51816164    -0.78500
C9          C  0.56517933  0.97421859  0.50174494     1.11200
C10         C  0.44537476  0.99042394  0.51314708     1.11100
C11         C  0.49880875  0.97433778  0.54976893     1.11300
C12         C  0.49940660  0.96426515  0.43825868     1.11100
O13         O  0.52689094  0.02979976  0.44536758    -0.78400
O14         O  0.50415566  0.04159564  0.54835592    -0.78500
O15         O  0.53682360  0.03902373  0.51351239    -0.78500
O16         O  0.46633798  0.03787275  0.47204859    -0.78400
O17         O  0.46272642  0.04418486  0.51243730    -0.78500
O18         O  0.56014951  0.02342882  0.48321600    -0.78500
O19         O  0.49054936  0.01523038  0.43269547    -0.78400
O20         O  0.53280881  0.01380058  0.55881900    -0.78500
Co21       Co  0.53734301  0.00017420  0.46479414     1.51500
Co22       Co  0.48948831  0.01970702  0.52061868     1.51700
Co23       Co  0.52449376  0.00546618  0.52279257     1.51600
Co24       Co  0.47502865  0.00239572  0.46497717     1.51500
O25         O  0.50719699  0.00291064  0.48892496    -1.40400
C26         C  0.51028578  0.02778760  0.42839919     1.11200
C27         C  0.51863666  0.03225063  0.56540997     1.11300
C28         C  0.55667490  0.03951491  0.50041722     1.11200
C29         C  0.45383213  0.04626819  0.49047136     1.11200
O30         O  0.03877720  0.53630610  0.48664383    -0.78400
O31         O  0.03456019  0.46330734  0.51432926    -0.78500
O32         O  0.03120467  0.51838071  0.55149148    -0.78500
O33         O  0.02853340  0.49369707  0.45705609    -0.78400
O34         O  0.01454986  0.48139087  0.55854036    -0.78500
O35         O  0.01397212  0.53015827  0.44213952    -0.78500
O36         O  0.02341327  0.45071767  0.47779076    -0.78400
O37         O  0.02518687  0.55802919  0.51884826    -0.78500
C38         C  0.03989113  0.55578074  0.50017511     1.11200
C39         C  0.03638532  0.44678349  0.49702951     1.11100
C40         C  0.02917362  0.49912426  0.56495642     1.11300
C41         C  0.02637092  0.50964689  0.43901641     1.11100
O42         O  0.96881179  0.51786897  0.46413665    -0.78400
O43         O  0.96502979  0.48392874  0.53722435    -0.78500
O44         O  0.97188112  0.55211454  0.52032994    -0.78500
O45         O  0.97875366  0.45277126  0.49342386    -0.78400
O46         O  0.99250407  0.44128603  0.53148637    -0.78500
O47         O  0.98940737  0.55994987  0.48334805    -0.78500
O48         O  0.97870519  0.48069539  0.45256539    -0.78400
O49         O  0.97749700  0.51683191  0.55873906    -0.78500
Co50       Co  0.00426164  0.52528242  0.47656884     1.51500
Co51       Co  0.99933590  0.47523528  0.52437968     1.51700
Co52       Co  0.00139930  0.53463704  0.53582078     1.51600
Co53       Co  0.00182789  0.48060084  0.48091921     1.51500
O54         O  0.00088577  0.50820169  0.50870261    -1.40400
C55         C  0.96536446  0.49964635  0.44922895     1.11200
C56         C  0.96317928  0.49800200  0.55641592     1.11300
C57         C  0.97433564  0.56614579  0.50127316     1.11200
C58         C  0.98039446  0.43641142  0.51121534     1.11200
O59         O  0.46630423  0.49054174  0.96500461    -0.78400
O60         O  0.53703045  0.49975913  0.96671930    -0.78500
O61         O  0.49812504  0.53401481  0.96987075    -0.78500
O62         O  0.50468249  0.45441652  0.96568587    -0.78400
O63         O  0.53648746  0.54744598  0.98144991    -0.78500
O64         O  0.46560872  0.44210640  0.97555293    -0.78500
O65         O  0.55458001  0.46558620  0.97845694    -0.78400
O66         O  0.44805000  0.52322089  0.97999495    -0.78500
C67         C  0.44658298  0.50464347  0.96596752     1.11200
C68         C  0.55666495  0.48551572  0.96691831     1.11100
C69         C  0.51555736  0.55080618  0.96937178     1.11300
C70         C  0.48644679  0.43849809  0.96376814     1.11100
O71         O  0.48311511  0.44512952  0.02341439    -0.78400
O72         O  0.51894760  0.54026117  0.02853349    -0.78500
O73         O  0.45238348  0.51430869  0.02596625    -0.78500
O74         O  0.54937139  0.47063514  0.02445778    -0.78400
O75         O  0.55837801  0.50981638  0.01530900    -0.78500
O76         O  0.44404932  0.47635406  0.01172994    -0.78500
O77         O  0.52013465  0.43255733  0.01090038    -0.78400
O78         O  0.48216065  0.55416793  0.01613297    -0.78500
Co79       Co  0.47731889  0.46927190  0.99482839     1.51500
Co80       Co  0.52535563  0.51849582  0.99806286     1.51700
Co81       Co  0.47859230  0.52216585  0.00054847     1.51600
Co82       Co  0.52347187  0.46528264  0.99770656     1.51500
O83         O  0.50115192  0.49327934  0.01076711    -1.40400
C84         C  0.50046424  0.42845643  0.02293507     1.11200
C85         C  0.50211752  0.55744648  0.02837622     1.11300
C86         C  0.43787996  0.49543991  0.02481047     1.11200
C87         C  0.56411307  0.48929284  0.02610361     1.11200
C88         C  0.55960512  0.92658468  0.76401551     0.04800
C89         C  0.54705154  0.93077633  0.74083590    -0.11300
C90         C  0.55255617  0.91559932  0.71967010     0.02300
C91         C  0.57024236  0.89585016  0.72219777    -0.09900
C92         C  0.58253292  0.89119485  0.74535409     0.04800
C93         C  0.57704498  0.90671015  0.76608735    -0.09300
H94         H  0.53374606  0.94630581  0.73903337     0.10400
H95         H  0.57490644  0.88433167  0.70575341     0.07900
H96         H  0.58640122  0.90332212  0.78403061     0.07800
C97         C  0.74437964  0.72692052  0.77532273     0.81900
N98         N  0.76288971  0.72801519  0.75761290    -0.76400
C99         C  0.76173378  0.74496844  0.73866744     0.84400
N100        N  0.74162346  0.76107504  0.73754845    -0.76300
C101        C  0.72281198  0.76036272  0.75498127     0.84400
N102        N  0.72437463  0.74320604  0.77378036    -0.78100
C103        C  0.92713227  0.73042529  0.57625894     0.04800
C104        C  0.90848668  0.72928097  0.59508914    -0.11300
C105        C  0.90160498  0.75058939  0.60914025     0.02300
C106        C  0.91383292  0.77323296  0.60437485    -0.09900
C107        C  0.93276236  0.77473510  0.58592095     0.04800
C108        C  0.93923784  0.75327210  0.57184455    -0.09300
H109        H  0.89908119  0.71166244  0.59864906     0.10400
H110        H  0.90805625  0.78982922  0.61438261     0.07900
H111        H  0.95391774  0.75429522  0.55750889     0.07800
C112        C  0.77319213  0.56885780  0.94103989     0.04800
C113        C  0.75096415  0.55495099  0.94521664    -0.11300
C114        C  0.72837824  0.56024580  0.93161576     0.02300
C115        C  0.72846075  0.57933623  0.91351035    -0.09900
C116        C  0.75040615  0.59333250  0.90931004     0.04800
C117        C  0.77251813  0.58815201  0.92324286    -0.09300
H118        H  0.75126883  0.54004221  0.95903866     0.10400
H119        H  0.71131507  0.58372394  0.90307374     0.07900
H120        H  0.78970029  0.59891359  0.91969935     0.07800
C121        C  0.26846762  0.22524685  0.75147263     0.81900
N122        N  0.25130444  0.22684711  0.73235430    -0.76400
C123        C  0.23500614  0.24661970  0.73072987     0.84400
N124        N  0.23587170  0.26481922  0.74874989    -0.76300
C125        C  0.25278437  0.26322170  0.76825457     0.84400
N126        N  0.26918559  0.24346318  0.76935832    -0.78100
C127        C  0.27632895  0.42778246  0.92956978     0.04800
C128        C  0.25439091  0.43203468  0.94419625    -0.11300
C129        C  0.23229501  0.41768135  0.94013861     0.02300
C130        C  0.23272636  0.39902064  0.92129706    -0.09900
C131        C  0.25429387  0.39491688  0.90619532     0.04800
C132        C  0.27586979  0.40960690  0.91046878    -0.09300
H133        H  0.25473770  0.44612299  0.95899914     0.10400
H134        H  0.21608680  0.38777063  0.91827074     0.07900
H135        H  0.29259970  0.40709473  0.89871130     0.07800
C136        C  0.42202149  0.05302845  0.77422792     0.04800
C137        C  0.40220628  0.07064473  0.77312232    -0.11300
C138        C  0.39814026  0.08510130  0.75144783     0.02300
C139        C  0.41386137  0.08117195  0.73044839    -0.09900
C140        C  0.43377316  0.06342329  0.73111550     0.04800
C141        C  0.43787126  0.04950854  0.75325956    -0.09300
H142        H  0.39007773  0.07336583  0.78949341     0.10400
H143        H  0.41111113  0.09258218  0.71366876     0.07900
H144        H  0.45328752  0.03590868  0.75416056     0.07800
C145        C  0.07161741  0.22977126  0.56650782     0.04800
C146        C  0.09150114  0.22970593  0.58437542    -0.11300
C147        C  0.10575599  0.25126371  0.58923781     0.02300
C148        C  0.10027768  0.27311078  0.57565501    -0.09900
C149        C  0.08047007  0.27370964  0.55781762     0.04800
C150        C  0.06613787  0.25203404  0.55328328    -0.09300
H151        H  0.09611025  0.21255773  0.59460339     0.10400
H152        H  0.11089944  0.29002002  0.57961922     0.07900
H153        H  0.05061778  0.25264968  0.53993321     0.07800
O154        O  0.46656450  0.99710923  0.96022005    -0.78400
O155        O  0.46722479  0.98717022  0.03179771    -0.78500
O156        O  0.49704907  0.93319208  0.97182119    -0.78500
O157        O  0.47741783  0.03548154  0.00314721    -0.78400
O158        O  0.46775636  0.94799018  0.99764815    -0.78500
O159        O  0.48041866  0.04664277  0.96330437    -0.78500
O160        O  0.49431812  0.01367444  0.04617314    -0.78400
O161        O  0.49207468  0.97149730  0.93940922    -0.78500
C162        C  0.47122898  0.98389126  0.94080275     1.11200
C163        C  0.47449139  0.00110827  0.04961579     1.11100
C164        C  0.47505261  0.93211712  0.98141772     1.11300
C165        C  0.47203854  0.05103892  0.98524537     1.11100
O166        O  0.52666861  0.03864926  0.98353035    -0.78400
O167        O  0.51792106  0.93455175  0.01489173    -0.78500
O168        O  0.54265434  0.98843585  0.95310450    -0.78500
O169        O  0.54256365  0.00135952  0.02690842    -0.78400
O170        O  0.51928832  0.97374669  0.04682711    -0.78500
O171        O  0.51294125  0.01370104  0.94032162    -0.78500
O172        O  0.52217008  0.04897896  0.02352722    -0.78400
O173        O  0.54622011  0.94910019  0.98818236    -0.78500
Co174      Co  0.49561450  0.01606680  0.97390097     1.51500
Co175      Co  0.49315890  0.96245184  0.02093083     1.51700
Co176      Co  0.51937201  0.96226822  0.96504687     1.51600
Co177      Co  0.51149764  0.01694874  0.01270011     1.51500
O178        O  0.50569177  0.98509781  0.99312570    -1.40400
C179        C  0.52934579  0.05480914  0.00163614     1.11200
C180        C  0.53999139  0.93388898  0.00531806     1.11300
C181        C  0.53322405  0.00168361  0.93565260     1.11200
C182        C  0.53890738  0.98764577  0.04600066     1.11200
C183        C  0.27586694  0.75365320  0.76566883     0.81900
N184        N  0.25859582  0.73516786  0.76367501    -0.76400
C185        C  0.23964942  0.73666323  0.74629049     0.84400
N186        N  0.23786521  0.75691586  0.73107923    -0.76300
C187        C  0.25518472  0.77554149  0.73278490     0.84400
N188        N  0.27426332  0.77363649  0.75012494    -0.78100
C189        C  0.44323765  0.71675700  0.92436736     0.04800
C190        C  0.44598704  0.73826060  0.93939628    -0.11300
C191        C  0.43197431  0.75996951  0.93372569     0.02300
C192        C  0.41514034  0.75987860  0.91319654    -0.09900
C193        C  0.41242500  0.73867720  0.89792589     0.04800
C194        C  0.42666348  0.71712173  0.90351952    -0.09300
H195        H  0.45897750  0.73808385  0.95538517     0.10400
H196        H  0.40418144  0.77664310  0.90891263     0.07900
H197        H  0.42463310  0.70047318  0.89184995     0.07800
C198        C  0.23047815  0.95353086  0.58977079     0.04800
C199        C  0.23033334  0.93528900  0.60859683    -0.11300
C200        C  0.25244835  0.92186387  0.61464877     0.02300
C201        C  0.27514897  0.92728917  0.60235545    -0.09900
C202        C  0.27583546  0.94534997  0.58330712     0.04800
C203        C  0.25324363  0.95836169  0.57690322    -0.09300
H204        H  0.21262687  0.93079035  0.61790208     0.10400
H205        H  0.29240651  0.91732654  0.60780227     0.07900
H206        H  0.25329286  0.97203122  0.56204965     0.07800
C207        C  0.08090339  0.57723468  0.77532140     0.04800
C208        C  0.09989228  0.59514777  0.77263646    -0.11300
C209        C  0.11127694  0.59912832  0.74926259     0.02300
C210        C  0.10343111  0.58500070  0.72831726    -0.09900
C211        C  0.08386290  0.56742872  0.73041608     0.04800
C212        C  0.07281039  0.56350232  0.75410008    -0.09300
H213        H  0.10595693  0.60588631  0.78886486     0.10400
H214        H  0.11262932  0.58758974  0.71043871     0.07900
H215        H  0.05757172  0.55006884  0.75598345     0.07800
C216        C  0.76700260  0.25776072  0.22825746     0.81900
N217        N  0.74978681  0.23910312  0.22882684    -0.76400
C218        C  0.75062162  0.22161619  0.24720715     0.84400
N219        N  0.76878152  0.22292346  0.26548728    -0.76300
C220        C  0.78610429  0.24157938  0.26513895     0.84400
N221        N  0.78521047  0.25882159  0.24649442    -0.78100
C222        C  0.94171669  0.27038134  0.43613454     0.04800
C223        C  0.95641360  0.24863253  0.44002420    -0.11300
C224        C  0.95248882  0.22718354  0.42515385     0.02300
C225        C  0.93325388  0.22749688  0.40672377    -0.09900
C226        C  0.91850633  0.24898513  0.40251177     0.04800
C227        C  0.92300553  0.27040388  0.41709872    -0.09300
H228        H  0.97095929  0.24837947  0.45459446     0.10400
H229        H  0.92974636  0.21080546  0.39540891     0.07900
H230        H  0.91185418  0.28717696  0.41353746     0.07800
C231        C  0.78134893  0.41519860  0.06423471     0.04800
C232        C  0.75923208  0.42958497  0.06016216    -0.11300
C233        C  0.73689694  0.42477132  0.07364092     0.02300
C234        C  0.73713791  0.40570682  0.09172149    -0.09900
C235        C  0.75909918  0.39135189  0.09596147     0.04800
C236        C  0.78114245  0.39595773  0.08212590    -0.09300
H237        H  0.75931383  0.44442056  0.04618458     0.10400
H238        H  0.71995971  0.40154386  0.10210577     0.07900
H239        H  0.79789521  0.38504935  0.08551948     0.07800
C240        C  0.58155581  0.06709873  0.25751740     0.04800
C241        C  0.57707464  0.05350295  0.23513832    -0.11300
C242        C  0.59179637  0.05763414  0.21348447     0.02300
C243        C  0.61139475  0.07526660  0.21461559    -0.09900
C244        C  0.61607503  0.08904394  0.23676914     0.04800
C245        C  0.60085621  0.08501183  0.25797894    -0.09300
H246        H  0.56208766  0.03965735  0.23458310     0.10400
H247        H  0.62294339  0.07828631  0.19820185     0.07900
H248        H  0.60420463  0.09563892  0.27505419     0.07800
O249        O  0.96594498  0.53099158  0.99530953    -0.78400
O250        O  0.03786252  0.52619613  0.00652374    -0.78500
O251        O  0.99346386  0.51591185  0.04429802    -0.78500
O252        O  0.02439689  0.49951039  0.94044615    -0.78400
O253        O  0.03304944  0.51001661  0.05647901    -0.78500
O254        O  0.00089273  0.53016978  0.95612119    -0.78500
O255        O  0.05654760  0.50037322  0.97945857    -0.78400
O256        O  0.94960085  0.50413334  0.02049030    -0.78500
C257        C  0.94723205  0.52426852  0.00825780     1.11200
C258        C  0.05623287  0.52093155  0.99186298     1.11100
C259        C  0.01085309  0.51816222  0.06145846     1.11300
C260        C  0.01784373  0.52237387  0.94103513     1.11100
O261        O  0.98014435  0.48316902  0.93974232    -0.78400
O262        O  0.01137475  0.46618188  0.04441383    -0.78500
O263        O  0.96682328  0.45624790  0.00557923    -0.78500
O264        O  0.03941885  0.45119690  0.99486788    -0.78400
O265        O  0.05530035  0.47828561  0.02088562    -0.78500
O266        O  0.94794943  0.48206922  0.97876869    -0.78500
O267        O  0.00424583  0.45223868  0.95419758    -0.78400
O268        O  0.97143501  0.47229171  0.05538921    -0.78500
Co269      Co  0.97548961  0.50639694  0.96906653     1.51500
Co270      Co  0.02241765  0.49767136  0.02400058     1.51700
Co271      Co  0.98237268  0.48453587  0.02357113     1.51600
Co272      Co  0.02933709  0.47589842  0.96896937     1.51500
O273        O  0.00240174  0.49097581  0.99203464    -1.40400
C274        C  0.98814834  0.46071941  0.93830967     1.11200
C275        C  0.99325850  0.46324093  0.06048557     1.11300
C276        C  0.94785978  0.46195647  0.99170311     1.11200
C277        C  0.05797163  0.45817799  0.00837985     1.11200
C278        C  0.22995504  0.06421957  0.42367699     0.04800
C279        C  0.23058514  0.08251237  0.40468101    -0.11300
C280        C  0.25261557  0.09643389  0.40024372     0.02300
C281        C  0.27445344  0.09152378  0.41485001    -0.09900
C282        C  0.27469127  0.07270683  0.43318706     0.04800
C283        C  0.25243035  0.05905004  0.43752005    -0.09300
H284        H  0.21373581  0.08582954  0.39317555     0.10400
H285        H  0.29127315  0.10230687  0.41206680     0.07900
H286        H  0.25241190  0.04495717  0.45226451     0.07800
C287        C  0.25781489  0.23364964  0.26946361     0.81900
N288        N  0.24186115  0.25381917  0.27027104    -0.76400
C289        C  0.24311216  0.27200286  0.25246744     0.84400
N290        N  0.26080879  0.26974989  0.23401457    -0.76300
C291        C  0.27703228  0.24985237  0.23293953     0.84400
N292        N  0.27523344  0.23179842  0.25072991    -0.78100
C293        C  0.08234594  0.43760276  0.27213990     0.04800
C294        C  0.06560551  0.43954802  0.25128209    -0.11300
C295        C  0.07046740  0.42640691  0.22871130     0.02300
C296        C  0.09183652  0.41053695  0.22741538    -0.09900
C297        C  0.10864798  0.40826467  0.24790155     0.04800
C298        C  0.10429974  0.42245638  0.26979287    -0.09300
H299        H  0.04832811  0.45075010  0.25269475     0.10400
H300        H  0.09559107  0.40002022  0.21023235     0.07900
H301        H  0.11767759  0.42099915  0.28523729     0.07800
C302        C  0.44131296  0.26019016  0.07041864     0.04800
C303        C  0.42347526  0.26086481  0.08998637    -0.11300
C304        C  0.40942211  0.23962586  0.09598399     0.02300
C305        C  0.41353438  0.21748175  0.08229327    -0.09900
C306        C  0.43067581  0.21653595  0.06210683     0.04800
C307        C  0.44458388  0.23806170  0.05634982    -0.09300
H308        H  0.41998412  0.27819254  0.10010578     0.10400
H309        H  0.40329269  0.20073194  0.08755420     0.07900
H310        H  0.45782910  0.23768671  0.04083280     0.07800
C311        C  0.75638743  0.26293000  0.75189579     0.81900
N312        N  0.73974299  0.26064414  0.77117754    -0.76400
C313        C  0.72349396  0.24106138  0.77174425     0.84400
N314        N  0.72421521  0.22352406  0.75308343    -0.76300
C315        C  0.74119351  0.22540776  0.73397945     0.84400
N316        N  0.75703422  0.24518754  0.73361664    -0.78100
C317        C  0.91682336  0.42424488  0.72168820     0.04800
C318        C  0.93187344  0.42807805  0.74342198    -0.11300
C319        C  0.92746689  0.41437491  0.76556859     0.02300
C320        C  0.90797812  0.39663594  0.76547588    -0.09900
C321        C  0.89310810  0.39241587  0.74390512     0.04800
C322        C  0.89754574  0.40630939  0.72208958    -0.09300
H323        H  0.94696850  0.44201076  0.74314901     0.10400
H324        H  0.90378585  0.38651775  0.78264350     0.07900
H325        H  0.88635483  0.40295594  0.70544393     0.07800
C326        C  0.56637116  0.22729154  0.94223803     0.04800
C327        C  0.55306043  0.24999083  0.94472852    -0.11300
C328        C  0.56075900  0.27094255  0.93106791     0.02300
C329        C  0.58113186  0.26883508  0.91425541    -0.09900
C330        C  0.59418218  0.24603440  0.91113741     0.04800
C331        C  0.58696590  0.22549537  0.92566944    -0.09300
H332        H  0.53716404  0.25144813  0.95748046     0.10400
H333        H  0.58632706  0.28490138  0.90306266     0.07900
H334        H  0.59713641  0.20783925  0.92381192     0.07800
C335        C  0.73058330  0.07227966  0.56354391     0.04800
C336        C  0.73087812  0.09032211  0.58274281    -0.11300
C337        C  0.75303161  0.09492647  0.59663396     0.02300
C338        C  0.77518457  0.08130869  0.59126229    -0.09900
C339        C  0.77538715  0.06286612  0.57233166     0.04800
C340        C  0.75286262  0.05834257  0.55839400    -0.09300
H341        H  0.71364379  0.10054190  0.58714384     0.10400
H342        H  0.79253390  0.08541775  0.60162066     0.07900
H343        H  0.75267453  0.04419206  0.54371197     0.07800
C344        C  0.75765942  0.76323336  0.27575348     0.81900
N345        N  0.77694774  0.74623582  0.27435706    -0.76400
C346        C  0.77673212  0.72780125  0.25673287     0.84400
N347        N  0.75700125  0.72638741  0.24015093    -0.76300
C348        C  0.73769790  0.74344150  0.24093263     0.84400
N349        N  0.73816111  0.76176488  0.25880873    -0.78100
C350        C  0.73553426  0.92487700  0.43878295     0.04800
C351        C  0.73639356  0.90475905  0.42159576    -0.11300
C352        C  0.75867943  0.89924410  0.40829478     0.02300
C353        C  0.78042790  0.91351993  0.41247168    -0.09900
C354        C  0.78014271  0.93334393  0.42988785     0.04800
C355        C  0.75758014  0.93912754  0.44286333    -0.09300
H356        H  0.71975939  0.89361540  0.41838151     0.10400
H357        H  0.79757796  0.90915023  0.40228286     0.07900
H358        H  0.75721378  0.95475707  0.45621420     0.07800
C359        C  0.94218493  0.56471714  0.23321203     0.04800
C360        C  0.92595207  0.58579907  0.23293532    -0.11300
C361        C  0.91235388  0.59316637  0.25441464     0.02300
C362        C  0.91480605  0.57906777  0.27643815    -0.09900
C363        C  0.92988460  0.55728222  0.27718400     0.04800
C364        C  0.94381712  0.55036297  0.25549330    -0.09300
H365        H  0.92367050  0.59657172  0.21573391     0.10400
H366        H  0.90448913  0.58497255  0.29306413     0.07900
H367        H  0.95582079  0.53384491  0.25592400     0.07800
C368        C  0.58926426  0.76461689  0.06498831     0.04800
C369        C  0.60680176  0.76301377  0.08498159    -0.11300
C370        C  0.60965166  0.74094789  0.09890828     0.02300
C371        C  0.59491643  0.72017637  0.09243106    -0.09900
C372        C  0.57753236  0.72127059  0.07227914     0.04800
C373        C  0.57472254  0.74355263  0.05854728    -0.09300
H374        H  0.61763833  0.77947112  0.09043121     0.10400
H375        H  0.59717851  0.70289574  0.10301346     0.07900
H376        H  0.56107639  0.74462164  0.04333362     0.07800
C377        C  0.24134934  0.74960293  0.25968479     0.81900
N378        N  0.25663320  0.76951810  0.25629729    -0.76400
C379        C  0.27343162  0.76975091  0.23705834     0.84400
N380        N  0.27482669  0.74999764  0.22095838    -0.76300
C381        C  0.25938360  0.73004366  0.22382216     0.84400
N382        N  0.24278277  0.73003916  0.24333159    -0.78100
C383        C  0.43462617  0.92584803  0.26436034     0.04800
C384        C  0.41375064  0.90980657  0.26181058    -0.11300
C385        C  0.39984868  0.90842879  0.23915364     0.02300
C386        C  0.40665225  0.92366335  0.21896308    -0.09900
C387        C  0.42760362  0.93958162  0.22080204     0.04800
C388        C  0.44168990  0.94044096  0.24349502    -0.09300
H389        H  0.40826550  0.89841892  0.27747479     0.10400
H390        H  0.39583928  0.92286844  0.20153761     0.07900
H391        H  0.45806740  0.95264236  0.24492605     0.07800
C392        C  0.07481397  0.76584917  0.41840355     0.04800
C393        C  0.09534605  0.76654185  0.40161942    -0.11300
C394        C  0.10929555  0.74493574  0.39563977     0.02300
C395        C  0.10345422  0.72238218  0.40736907    -0.09900
C396        C  0.08350246  0.72122221  0.42466836     0.04800
C397        C  0.06899496  0.74290455  0.42997030    -0.09300
H398        H  0.10081219  0.78403269  0.39335555     0.10400
H399        H  0.11422552  0.70565217  0.40287371     0.07900
H400        H  0.05319891  0.74183211  0.44313329     0.07800
C401        C  0.26656305  0.56219412  0.06585884     0.04800
C402        C  0.26810365  0.58060488  0.08465460    -0.11300
C403        C  0.24719654  0.59600974  0.09022259     0.02300
C404        C  0.22437897  0.59282039  0.07679954    -0.09900
C405        C  0.22245845  0.57461001  0.05772692     0.04800
C406        C  0.24376877  0.55947198  0.05211547    -0.09300
H407        H  0.28594037  0.58322237  0.09476720     0.10400
H408        H  0.20798873  0.60449051  0.08126988     0.07900
H409        H  0.24241483  0.54516061  0.03753763     0.07800
O410        O  0.98055604  0.94289993  0.50967932    -0.78400
O411        O  0.01301960  0.04590121  0.52229943    -0.78500
O412        O  0.03913991  0.99745722  0.54103449    -0.78500
O413        O  0.96710219  0.01083545  0.53193839    -0.78400
O414        O  0.05641753  0.02110387  0.51332877    -0.78500
O415        O  0.94913105  0.98275805  0.50698641    -0.78500
O416        O  0.97416360  0.05879118  0.51329809    -0.78400
O417        O  0.00437708  0.95878369  0.54018639    -0.78500
C418        C  0.98814845  0.94310281  0.53246707     1.11200
C419        C  0.99559214  0.06305765  0.52353922     1.11100
C420        C  0.05767065  0.01062178  0.53454176     1.11300
C421        C  0.94828298  0.99707432  0.52637637     1.11100
O422        O  0.96965235  0.99472644  0.45766250    -0.78400
O423        O  0.04146741  0.00420982  0.46486509    -0.78500
O424        O  0.02627585  0.94085512  0.49432380    -0.78500
O425        O  0.99825076  0.04420491  0.47108054    -0.78400
O426        O  0.03818154  0.05351646  0.47922277    -0.78500
O427        O  0.00308306  0.95368243  0.46200374    -0.78500
O428        O  0.95296608  0.02264921  0.48219205    -0.78400
O429        O  0.05953538  0.97931847  0.49283192    -0.78500
Co430      Co  0.97740709  0.97012084  0.48423456     1.51500
Co431      Co  0.02499903  0.02348120  0.49205588     1.51700
Co432      Co  0.03053352  0.97076683  0.51659608     1.51600
Co433      Co  0.98478164  0.02589680  0.50311793     1.51500
O434        O  0.00418211  0.99313601  0.49933763    -1.40400
C435        C  0.95089749  0.00861152  0.46301925     1.11200
C436        C  0.06063882  0.99155540  0.47217552     1.11300
C437        C  0.01872803  0.93816131  0.47168015     1.11200
C438        C  0.01732266  0.05904411  0.46856041     1.11200
C439        C  0.05451894  0.87800132  0.45820605     0.14400
C440        C  0.03794816  0.86550776  0.44165388     0.01300
C441        C  0.01669091  0.87862431  0.43194274     0.16300
C442        C  0.01121076  0.90316825  0.44011805     0.25700
C443        C  0.02686384  0.91491861  0.45823236    -0.40600
C444        C  0.04907487  0.90227906  0.46641051     0.32800
C445        C  0.04308719  0.83875786  0.43522741     0.01400
F446        F  0.00051397  0.86725437  0.41557052    -0.12900
F447        F  0.06533498  0.91316752  0.48306858    -0.13500
C448        C  0.04676618  0.82110908  0.45457011     0.16300
C449        C  0.05580154  0.79695348  0.44912831     0.25700
C450        C  0.06079703  0.78967194  0.42408970    -0.40600
C451        C  0.05494210  0.80672615  0.40458105     0.32700
C452        C  0.04654773  0.83107499  0.41011460     0.14400
F453        F  0.04249740  0.82761599  0.47897061    -0.12900
F454        F  0.05814881  0.80008359  0.38004769    -0.13400
F455        F  0.06126247  0.78135587  0.46855319    -0.15700
F456        F  0.04326443  0.84754635  0.39097330    -0.14300
F457        F  0.07596540  0.86646373  0.46683366    -0.14300
F458        F  0.98980460  0.91474235  0.43149353    -0.15700
C459        C  0.27476267  0.69082684  0.16562395     0.14400
C460        C  0.25718746  0.67147657  0.16765685     0.01300
C461        C  0.24139650  0.67049771  0.18875532     0.16300
C462        C  0.24254844  0.68905049  0.20732604     0.25700
C463        C  0.25964907  0.70911626  0.20514668    -0.40600
C464        C  0.27617006  0.70939035  0.18422944     0.32800
C465        C  0.25504120  0.65232914  0.14768247     0.01400
F466        F  0.22428889  0.65183823  0.19101494    -0.12900
F467        F  0.29361138  0.72766225  0.18146632    -0.13500
C468        C  0.26182120  0.62744598  0.15273605     0.16300
C469        C  0.25904958  0.60910283  0.13411874     0.25700
C470        C  0.24941141  0.61538743  0.11012272    -0.40600
C471        C  0.24260716  0.64037220  0.10511387     0.32700
C472        C  0.24546159  0.65871847  0.12377178     0.14400
F473        F  0.27128032  0.62099018  0.17570532    -0.12900
F474        F  0.23373575  0.64710489  0.08200078    -0.13400
F475        F  0.26538591  0.58509706  0.13967194    -0.15700
F476        F  0.23857969  0.68268266  0.11864932    -0.14300
F477        F  0.29062743  0.69169357  0.14557528    -0.14300
F478        F  0.22651248  0.68737296  0.22715838    -0.15700
C479        C  0.17333715  0.73823761  0.36388463     0.14400
C480        C  0.16798613  0.74833354  0.34002344     0.01300
C481        C  0.14345034  0.75742479  0.33459915     0.16300
C482        C  0.12440884  0.75626456  0.35271345     0.25700
C483        C  0.12963492  0.74604905  0.37659898    -0.40600
C484        C  0.15428345  0.73710138  0.38208205     0.32800
C485        C  0.18769001  0.74874075  0.32040587     0.01400
F486        F  0.13779141  0.76683617  0.31148498    -0.12900
F487        F  0.16001723  0.72775722  0.40520039    -0.13500
C488        C  0.19747652  0.72626028  0.31061882     0.16300
C489        C  0.21503136  0.72649737  0.29099775     0.25700
C490        C  0.22316649  0.74931659  0.28085654    -0.40600
C491        C  0.21359794  0.77186302  0.29109508     0.32700
C492        C  0.19595739  0.77152814  0.31064408     0.14400
F493        F  0.18951787  0.70402619  0.31968548    -0.12900
F494        F  0.22069652  0.79427713  0.28176423    -0.13400
F495        F  0.22423145  0.70435666  0.28217538    -0.15700
F496        F  0.18684566  0.79348155  0.32003750    -0.14300
F497        F  0.19710025  0.72978752  0.36960390    -0.14300
F498        F  0.10064131  0.76450428  0.34668578    -0.15700
C499        C  0.33317726  0.80727468  0.23066034     0.14400
C500        C  0.32363722  0.83186611  0.23227072     0.01300
C501        C  0.29729242  0.83591733  0.23432957     0.16300
C502        C  0.28082210  0.81564031  0.23548080     0.25700
C503        C  0.29045900  0.79108910  0.23417918    -0.40600
C504        C  0.31667980  0.78704635  0.23135568     0.32800
C505        C  0.34141229  0.85306926  0.23284667     0.01400
F506        F  0.28755938  0.85949430  0.23520444    -0.12900
F507        F  0.32644643  0.76347721  0.23058337    -0.13500
C508        C  0.35890206  0.85617822  0.21328129     0.16300
C509        C  0.37756059  0.87447760  0.21508323     0.25700
C510        C  0.37879913  0.89032782  0.23635625    -0.40600
C511        C  0.36049262  0.88789506  0.25540720     0.32700
C512        C  0.34210220  0.86929298  0.25375349     0.14400
F513        F  0.35819841  0.84110696  0.19260643    -0.23900
F514        F  0.36049143  0.90341676  0.27574643    -0.13400
F515        F  0.39513409  0.87586117  0.19653986    -0.15700
F516        F  0.32560756  0.86646822  0.27307760    -0.14300
F517        F  0.35860141  0.80283086  0.22947123    -0.14300
F518        F  0.25544078  0.81994947  0.23760383    -0.15700
C519        C  0.84882266  0.94649134  0.44612148     0.14400
C520        C  0.85122647  0.97154065  0.43876884     0.01300
C521        C  0.82963395  0.98447405  0.42966461     0.16300
C522        C  0.80614740  0.97237983  0.42755641     0.25700
C523        C  0.80396671  0.94719876  0.43450725    -0.40600
C524        C  0.82545243  0.93443913  0.44394301     0.32800
C525        C  0.87618378  0.98410326  0.44140119     0.01400
F526        F  0.83149829  0.00857540  0.42215748    -0.12900
F527        F  0.82374149  0.91018090  0.45101521    -0.13500
C528        C  0.89768276  0.97475401  0.42875050     0.16300
C529        C  0.92188926  0.98429130  0.43401140     0.25700
C530        C  0.92514743  0.00334044  0.45224503    -0.40600
C531        C  0.90317648  0.01383152  0.46353280     0.32700
C532        C  0.87904699  0.00421742  0.45820315     0.14400
F533        F  0.89532999  0.95567692  0.41193517    -0.12900
F534        F  0.90503425  0.03225359  0.48113348    -0.13400
F535        F  0.94224508  0.97381495  0.42225528    -0.15700
F536        F  0.85862069  0.01341892  0.47083329    -0.14300
F537        F  0.86912271  0.93374663  0.45567701    -0.14300
F538        F  0.78580677  0.98491163  0.41781399    -0.15700
C539        C  0.68566254  0.76331184  0.19494121     0.14400
C540        C  0.67904249  0.74039937  0.18388769     0.01300
C541        C  0.69066516  0.71833770  0.19251796     0.16300
C542        C  0.70941148  0.71924186  0.21137382     0.25700
C543        C  0.71666299  0.74228752  0.22211759    -0.40600
C544        C  0.70419258  0.76428630  0.21398882     0.32800
C545        C  0.66128723  0.73978390  0.16218860     0.01400
F546        F  0.68433381  0.69598174  0.18215600    -0.12900
F547        F  0.71067870  0.78690708  0.22361678    -0.13500
C548        C  0.66973641  0.74692550  0.13828216     0.16300
C549        C  0.65304351  0.74697298  0.11764478     0.25700
C550        C  0.62756132  0.73992016  0.12061293    -0.40600
C551        C  0.61919023  0.73250658  0.14457685     0.32700
C552        C  0.63597474  0.73241192  0.16521398     0.14400
F553        F  0.69426239  0.75375352  0.13496706    -0.12900
F554        F  0.59456078  0.72616839  0.14816355    -0.13400
F555        F  0.66185064  0.75360195  0.09466148    -0.15700
F556        F  0.62742613  0.72565595  0.18825176    -0.14300
F557        F  0.67446434  0.78482325  0.18688767    -0.14300
F558        F  0.72042468  0.69753009  0.21910738    -0.15700
C559        C  0.81124019  0.66561838  0.25332506     0.14400
C560        C  0.83683696  0.67274079  0.25574806     0.01300
C561        C  0.84249291  0.69822640  0.25883639     0.16300
C562        C  0.82293171  0.71616790  0.25938269     0.25700
C563        C  0.79744868  0.70900462  0.25618298    -0.40600
C564        C  0.79180245  0.68359693  0.25309315     0.32800
C565        C  0.85741368  0.65351246  0.25466331     0.01400
F566        F  0.86697573  0.70584012  0.26070661    -0.12900
F567        F  0.76733446  0.67606224  0.25071318    -0.13500
C568        C  0.85811635  0.63616881  0.23463412     0.16300
C569        C  0.87619538  0.61686472  0.23434778     0.25700
C570        C  0.89447151  0.61484823  0.25374237    -0.40600
C571        C  0.89446722  0.63283274  0.27325360     0.32700
C572        C  0.87594260  0.65179520  0.27387076     0.14400
F573        F  0.84107059  0.63778160  0.21534811    -0.12900
F574        F  0.91233775  0.63196885  0.29184757    -0.13400
F575        F  0.87509238  0.59951223  0.21561299    -0.15700
F576        F  0.87560543  0.66792269  0.29372492    -0.14300
F577        F  0.80497554  0.64112038  0.25170931    -0.14300
F578        F  0.82896011  0.74062435  0.26228317    -0.15700
C579        C  0.77682325  0.80105175  0.33388333     0.14400
C580        C  0.75834937  0.82010909  0.33399464     0.01300
C581        C  0.73938829  0.82029812  0.31524681     0.16300
C582        C  0.73907765  0.80195190  0.29637486     0.25700
C583        C  0.75779344  0.78283839  0.29588499    -0.40600
C584        C  0.77659820  0.78260445  0.31511232     0.32800
C585        C  0.75912928  0.84020145  0.35326207     0.01400
F586        F  0.72095126  0.83824313  0.31535483    -0.12900
F587        F  0.79491053  0.76456563  0.31597715    -0.13500
C588        C  0.76185744  0.86517865  0.34582701     0.16300
C589        C  0.76195366  0.88434740  0.36381566     0.25700
C590        C  0.75912821  0.87884826  0.38948181    -0.40600
C591        C  0.75676391  0.85388716  0.39702327     0.32700
C592        C  0.75690147  0.83464578  0.37903456     0.14400
F593        F  0.76464623  0.87094613  0.32111244    -0.12900
F594        F  0.75461210  0.84819537  0.42182241    -0.13400
F595        F  0.76437043  0.90835915  0.35617358    -0.15700
F596        F  0.75440227  0.81065301  0.38670316    -0.14300
F597        F  0.79548416  0.80059267  0.35170988    -0.14300
F598        F  0.72043784  0.80317003  0.27858188    -0.15700
C599        C  0.89589704  0.02799932  0.56496263     0.14400
C600        C  0.87411606  0.01737191  0.55396814     0.01300
C601        C  0.87705375  0.99733658  0.53705698     0.16300
C602        C  0.90128273  0.98915121  0.52983670     0.25700
C603        C  0.92332778  0.00108797  0.53919003    -0.40600
C604        C  0.92026723  0.01995236  0.55769534     0.32800
C605        C  0.84840230  0.02812470  0.55868296     0.01400
F606        F  0.85629495  0.98619974  0.52681367    -0.12900
F607        F  0.94075152  0.03169519  0.56776067    -0.13500
C608        C  0.83418719  0.03851257  0.53866641     0.16300
C609        C  0.81001203  0.04890817  0.54284322     0.25700
C610        C  0.79960525  0.04921703  0.56717886    -0.40600
C611        C  0.81377890  0.03858401  0.58717140     0.32700
C612        C  0.83796525  0.02822570  0.58296799     0.14400
F613        F  0.84420409  0.03947369  0.51519300    -0.12900
F614        F  0.80418956  0.03831722  0.61086859    -0.13400
F615        F  0.79735456  0.05982000  0.52334319    -0.15700
F616        F  0.85117814  0.01822321  0.60260791    -0.14300
F617        F  0.89359998  0.04727713  0.58156662    -0.14300
F618        F  0.90290152  0.97045373  0.51249621    -0.15700
C619        C  0.73581519  0.16353074  0.69875422     0.14400
C620        C  0.74869632  0.16873602  0.67629405     0.01300
C621        C  0.75919467  0.19245570  0.67299426     0.16300
C622        C  0.75626703  0.21091408  0.69141829     0.25700
C623        C  0.74328047  0.20589928  0.71402222    -0.40600
C624        C  0.73326564  0.18184929  0.71751914     0.32800
C625        C  0.75042522  0.14985141  0.65586227     0.01400
F626        F  0.77252513  0.19775444  0.65188435    -0.12900
F627        F  0.72128734  0.17581338  0.73919261    -0.13500
C628        C  0.74187834  0.15580849  0.63141225     0.16300
C629        C  0.74327706  0.13811988  0.61205285     0.25700
C630        C  0.75280216  0.11398564  0.61687537    -0.40600
C631        C  0.76139827  0.10798717  0.64128466     0.32700
C632        C  0.76042531  0.12585288  0.66058322     0.14400
F633        F  0.73168282  0.17866045  0.62636381    -0.12900
F634        F  0.77008935  0.08461790  0.64659695    -0.13400
F635        F  0.73546467  0.14463356  0.58850617    -0.15700
F636        F  0.76942440  0.11976460  0.68382871    -0.14300
F637        F  0.72524988  0.14081208  0.70235371    -0.14300
F638        F  0.76600128  0.23379363  0.68678241    -0.15700
C639        C  0.69643395  0.24059065  0.83758567     0.14400
C640        C  0.67024516  0.23799895  0.83270558     0.01300
C641        C  0.66192646  0.23504931  0.80754554     0.16300
C642        C  0.67938047  0.23508840  0.78774069     0.25700
C643        C  0.70532736  0.23889290  0.79265000    -0.40600
C644        C  0.71373713  0.24145145  0.81771380     0.32800
C645        C  0.65157527  0.23933390  0.85365112     0.01400
F646        F  0.63677546  0.23316794  0.80201000    -0.12900
F647        F  0.73882863  0.24441842  0.82296499    -0.13500
C648        C  0.65178980  0.25954777  0.87077512     0.16300
C649        C  0.63363045  0.26139243  0.88986617     0.25700
C650        C  0.61448628  0.24336513  0.89191919    -0.40600
C651        C  0.61437414  0.22307849  0.87488735     0.32700
C652        C  0.63290686  0.22091379  0.85620523     0.14400
F653        F  0.66915947  0.27797493  0.86859681    -0.12900
F654        F  0.59576588  0.20572502  0.87572813    -0.13400
F655        F  0.63485278  0.28080139  0.90641548    -0.15700
F656        F  0.63256882  0.20074453  0.84057285    -0.14300
F657        F  0.70530922  0.24216562  0.86163900    -0.14300
F658        F  0.67076360  0.23262518  0.76366642    -0.15700
C659        C  0.82804337  0.36308131  0.73842797     0.14400
C660        C  0.83308867  0.33879847  0.74705088     0.01300
C661        C  0.85797847  0.33191850  0.75396687     0.16300
C662        C  0.87759153  0.34925963  0.75260204     0.25700
C663        C  0.87253080  0.37377393  0.74438127    -0.40600
C664        C  0.84760044  0.38049175  0.73715823     0.32800
C665        C  0.81244172  0.32047520  0.74843243     0.01400
F666        F  0.86330219  0.30827411  0.76164930    -0.12900
F667        F  0.84204502  0.40411334  0.72956887    -0.13500
C668        C  0.80188825  0.31064165  0.72622389     0.16300
C669        C  0.78304764  0.29253196  0.72738929     0.25700
C670        C  0.77442175  0.28392129  0.75087642    -0.40600
C671        C  0.78443092  0.29452322  0.77313523     0.32700
C672        C  0.80345879  0.31253781  0.77188376     0.14400
F673        F  0.81032934  0.31815749  0.70338214    -0.12900
F674        F  0.77658017  0.28678578  0.79609937    -0.13400
F675        F  0.77319560  0.28351347  0.70547004    -0.15700
F676        F  0.81330539  0.32212742  0.79355624    -0.14300
F677        F  0.80405410  0.37000284  0.73167489    -0.14300
F678        F  0.90162154  0.34199926  0.75885658    -0.15700
C679        C  0.31694635  0.26518995  0.17530216     0.14400
C680        C  0.33311229  0.24433582  0.17377689     0.01300
C681        C  0.33094078  0.22516422  0.19145678     0.16300
C682        C  0.31280743  0.22682471  0.21061786     0.25700
C683        C  0.29639740  0.24786664  0.21246488    -0.40600
C684        C  0.29885673  0.26705294  0.19441880     0.32800
C685        C  0.35264143  0.24289613  0.15398419     0.01400
F686        F  0.34648683  0.20480082  0.19015412    -0.12900
F687        F  0.28402604  0.28789090  0.19517559    -0.13500
C688        C  0.37720297  0.25176398  0.15882430     0.16300
C689        C  0.39573239  0.25069486  0.14003753     0.25700
C690        C  0.38990580  0.24074583  0.11606259    -0.40600
C691        C  0.36513807  0.23202974  0.11127469     0.32700
C692        C  0.34667874  0.23308967  0.13011703     0.14400
F693        F  0.38316014  0.26151364  0.18177957    -0.12900
F694        F  0.35862018  0.22307843  0.08813270    -0.13400
F695        F  0.41948735  0.25894061  0.14543567    -0.15700
F696        F  0.32290624  0.22470236  0.12505171    -0.14300
F697        F  0.31885419  0.28393445  0.15830400    -0.14300
F698        F  0.31153905  0.20776686  0.22730806    -0.15700
C699        C  0.14343244  0.34610286  0.24419233     0.14400
C700        C  0.16865112  0.35298472  0.24921598     0.01300
C701        C  0.17439944  0.37837823  0.25261767     0.16300
C702        C  0.15499053  0.39654078  0.25184783     0.25700
C703        C  0.12964665  0.38956077  0.24726255    -0.40600
C704        C  0.12412160  0.36421035  0.24313054     0.32800
C705        C  0.18873764  0.33345363  0.25103561     0.01400
F706        F  0.19870665  0.38547975  0.25719261    -0.12900
F707        F  0.09982506  0.35687851  0.23888941    -0.13500
C708        C  0.20747854  0.33140792  0.23251528     0.16300
C709        C  0.22527847  0.31180065  0.23314190     0.25700
C710        C  0.22486746  0.29371467  0.25252936    -0.40600
C711        C  0.20628923  0.29640098  0.27150942     0.32700
C712        C  0.18841858  0.31598152  0.27064441     0.14400
F713        F  0.20801243  0.34797899  0.21324444    -0.12900
F714        F  0.20504734  0.28000368  0.29086690    -0.13400
F715        F  0.24250460  0.31046589  0.21429662    -0.15700
F716        F  0.17061662  0.31786266  0.28898206    -0.14300
F717        F  0.13753751  0.32174618  0.24031268    -0.14300
F718        F  0.16091990  0.42093016  0.25544058    -0.15700
C719        C  0.15967667  0.05370442  0.43698178     0.14400
C720        C  0.15843165  0.02753959  0.43903916     0.01300
C721        C  0.18103728  0.01344731  0.43625173     0.16300
C722        C  0.20428289  0.02522335  0.43153069     0.25700
C723        C  0.20547546  0.05139946  0.42931337    -0.40600
C724        C  0.18283173  0.06545543  0.43216532     0.32800
C725        C  0.13380777  0.01522000  0.44518854     0.01400
F726        F  0.18054336  0.98814984  0.43766162    -0.12900
F727        F  0.18320234  0.09078193  0.43102214    -0.13500
C728        C  0.11165532  0.01986560  0.43079828     0.16300
C729        C  0.08804419  0.01046508  0.43829898     0.25700
C730        C  0.08598718  0.99595798  0.46033892    -0.40600
C731        C  0.10858923  0.98991994  0.47366564     0.32700
C732        C  0.13202325  0.99969763  0.46637615     0.14400
F733        F  0.11275279  0.03405832  0.40971187    -0.12900
F734        F  0.10796968  0.97593897  0.49491916    -0.13400
F735        F  0.06705620  0.01648375  0.42447399    -0.15700
F736        F  0.15277064  0.99527712  0.48110823    -0.14300
F737        F  0.13854231  0.06806351  0.44042919    -0.14300
F738        F  0.22550484  0.01092490  0.42845587    -0.15700
C739        C  0.25757945  0.16942203  0.29947355     0.14400
C740        C  0.25452240  0.17530974  0.32516502     0.01300
C741        C  0.25213568  0.20056945  0.33238278     0.16300
C742        C  0.25275665  0.21953681  0.31426826     0.25700
C743        C  0.25619847  0.21364022  0.28861983    -0.40600
C744        C  0.25860428  0.18837606  0.28142483     0.32800
C745        C  0.25398900  0.15511480  0.34435719     0.01400
F746        F  0.24992124  0.20692008  0.35709595    -0.12900
F747        F  0.26132345  0.18196369  0.25677671    -0.13500
C748        C  0.27431197  0.13796015  0.34646938     0.16300
C749        C  0.27371200  0.11873762  0.36425696     0.25700
C750        C  0.25291122  0.11644261  0.38070213    -0.40600
C751        C  0.23266338  0.13380086  0.37865827     0.32700
C752        C  0.23313339  0.15277682  0.36057710     0.14400
F753        F  0.29500142  0.14003698  0.33149817    -0.12900
F754        F  0.21263799  0.13285912  0.39460695    -0.13400
F755        F  0.29337346  0.10211632  0.36505247    -0.15700
F756        F  0.21300593  0.16875444  0.35872730    -0.14300
F757        F  0.25914127  0.14522127  0.29178398    -0.14300
F758        F  0.25095158  0.24372564  0.32193372    -0.15700
C759        C  0.96021156  0.40310882  0.82869956     0.14400
C760        C  0.96032326  0.42727798  0.83910616     0.01300
C761        C  0.95248554  0.44752084  0.82400906     0.16300
C762        C  0.94324815  0.44354362  0.79947534     0.25700
C763        C  0.94165586  0.41918175  0.78952580    -0.40600
C764        C  0.95102465  0.39909163  0.80412883     0.32800
C765        C  0.96685905  0.43148233  0.86612898     0.01400
F766        F  0.95305910  0.47116513  0.83338558    -0.12900
F767        F  0.95061303  0.37541605  0.79481650    -0.13500
C768        C  0.99162416  0.42715237  0.87545455     0.16300
C769        C  0.99822650  0.43442605  0.90016604     0.25700
C770        C  0.98012189  0.44614052  0.91582209    -0.40600
C771        C  0.95493247  0.44868846  0.90698733     0.32700
C772        C  0.94837499  0.44138886  0.88245491     0.14400
F773        F  0.00981100  0.41750360  0.86009072    -0.12900
F774        F  0.93688908  0.45950455  0.92176058    -0.13400
F775        F  0.02277987  0.43210970  0.90792187    -0.15700
F776        F  0.92408761  0.44488946  0.87425158    -0.14300
F777        F  0.96777179  0.38324572  0.84277548    -0.14300
F778        F  0.93434851  0.46338030  0.78611159    -0.15700
C779        C  0.97875300  0.57044797  0.17158711     0.14400
C780        C  0.97921302  0.54573050  0.16274503     0.01300
C781        C  0.96912273  0.52690220  0.17791501     0.16300
C782        C  0.95786277  0.53277361  0.20116850     0.25700
C783        C  0.95661725  0.55773230  0.20984487    -0.40600
C784        C  0.96790944  0.57638082  0.19496884     0.32800
C785        C  0.98805816  0.54000378  0.13676524     0.01400
F786        F  0.96929752  0.50288370  0.16972465    -0.12900
F787        F  0.96834352  0.60051581  0.20294515    -0.13500
C788        C  0.01365656  0.53425694  0.13178623     0.16300
C789        C  0.02153898  0.52838434  0.10712749     0.25700
C790        C  0.00390839  0.52832094  0.08689655    -0.40600
C791        C  0.97833290  0.53486122  0.09210222     0.32700
C792        C  0.97058479  0.54047393  0.11670568     0.14400
F793        F  0.03092960  0.53389126  0.15091730    -0.12900
F794        F  0.96039048  0.53507421  0.07356525    -0.13400
F795        F  0.04626608  0.52207360  0.10327642    -0.15700
F796        F  0.94573884  0.54597408  0.12106543    -0.14300
F797        F  0.98818926  0.58900325  0.15717353    -0.14300
F798        F  0.94696692  0.51415907  0.21442117    -0.15700
C799        C  0.02962469  0.43002557  0.11271702     0.14400
C800        C  0.01603790  0.43779767  0.13411367     0.01300
C801        C  0.99288713  0.45067400  0.13082562     0.16300
C802        C  0.98435525  0.45737111  0.10664670     0.25700
C803        C  0.99887344  0.45117436  0.08518586    -0.40600
C804        C  0.02119009  0.43666819  0.08850264     0.32800
C805        C  0.02738537  0.43479996  0.15969183     0.01400
F806        F  0.97893012  0.45739899  0.15120163    -0.12900
F807        F  0.03552742  0.42980932  0.06838511    -0.13500
C808        C  0.03600982  0.45591049  0.17301016     0.16300
C809        C  0.04906191  0.45325877  0.19599176     0.25700
C810        C  0.05374284  0.42940617  0.20612227    -0.40600
C811        C  0.04418057  0.40834249  0.19326216     0.32700
C812        C  0.03120412  0.41102211  0.17020759     0.14400
F813        F  0.03291482  0.47905975  0.16306620    -0.12900
F814        F  0.04763780  0.38512358  0.20294679    -0.13400
F815        F  0.05842958  0.47391562  0.20759522    -0.15700
F816        F  0.02261268  0.39039126  0.15797980    -0.14300
F817        F  0.05191322  0.41725895  0.11535611    -0.14300
F818        F  0.96284079  0.47144896  0.10450381    -0.15700
C819        C  0.15253247  0.56257406  0.04570489     0.14400
C820        C  0.15077289  0.56450199  0.01931373     0.01300
C821        C  0.17272954  0.57013660  0.00555833     0.16300
C822        C  0.19611379  0.57335252  0.01798698     0.25700
C823        C  0.19786131  0.57113441  0.04435693    -0.40600
C824        C  0.17579762  0.56594505  0.05810141     0.32800
C825        C  0.12664250  0.55772981  0.00641242     0.01400
F826        F  0.17151193  0.57240846  0.98009823    -0.12900
F827        F  0.17696920  0.56320898  0.08352213    -0.13500
C828        C  0.10362675  0.56974178  0.01272203     0.16300
C829        C  0.08031237  0.55918094  0.00575043     0.25700
C830        C  0.07968135  0.53628888  0.99251108    -0.40600
C831        C  0.10286057  0.52605268  0.98361899     0.32700
C832        C  0.12603504  0.53663154  0.99062842     0.14400
F833        F  0.10375289  0.59094026  0.02689333    -0.12900
F834        F  0.10347869  0.50447951  0.97002831    -0.13400
F835        F  0.05845945  0.57060212  0.01325779    -0.15700
F836        F  0.14794513  0.52479472  0.98395843    -0.14300
F837        F  0.13189232  0.55623679  0.05940973    -0.14300
F838        F  0.21700573  0.57891433  0.00433131    -0.15700
C839        C  0.87703613  0.45076216  0.99215877     0.14400
C840        C  0.87513291  0.43337560  0.01169352     0.01300
C841        C  0.89731228  0.42202612  0.02126583     0.16300
C842        C  0.92123773  0.42948657  0.01293835     0.25700
C843        C  0.92339951  0.44854161  0.99480136    -0.40600
C844        C  0.90087480  0.45811588  0.98356811     0.32800
C845        C  0.85036526  0.42890404  0.02383240     0.01400
F846        F  0.89586021  0.40505943  0.04011268    -0.12900
F847        F  0.90171714  0.47593262  0.96548570    -0.13500
C848        C  0.83933316  0.40515079  0.02315170     0.16300
C849        C  0.81673995  0.40074265  0.03610084     0.25700
C850        C  0.80481284  0.42006340  0.04987286    -0.40600
C851        C  0.81578316  0.44389042  0.05035947     0.32700
C852        C  0.83838163  0.44825775  0.03745139     0.14400
F853        F  0.85045969  0.38627041  0.00991377    -0.12900
F854        F  0.80517226  0.46264802  0.06419482    -0.13400
F855        F  0.80637921  0.37763725  0.03506167    -0.15700
F856        F  0.84913615  0.47115659  0.03902637    -0.14300
F857        F  0.85575289  0.46149321  0.98219879    -0.14300
F858        F  0.94219645  0.41928388  0.02405413    -0.15700
C859        C  0.98942545  0.16747635  0.41145042     0.14400
C860        C  0.99252146  0.15766907  0.43571640     0.01300
C861        C  0.98435003  0.17165448  0.45664849     0.16300
C862        C  0.97196555  0.19459935  0.45336819     0.25700
C863        C  0.96795724  0.20416491  0.42898591    -0.40600
C864        C  0.97751298  0.19069038  0.40809649     0.32800
C865        C  0.00184293  0.13188324  0.43941384     0.01400
F866        F  0.98703743  0.16231447  0.48022596    -0.12900
F867        F  0.97504711  0.19985787  0.38438002    -0.13500
C868        C  0.02421646  0.12733340  0.45319447     0.16300
C869        C  0.03035543  0.10315898  0.46108113     0.25700
C870        C  0.01411531  0.08307984  0.45523321    -0.40600
C871        C  0.99254054  0.08755117  0.43996126     0.32700
C872        C  0.98650603  0.11177881  0.43210309     0.14400
F873        F  0.03944370  0.14655436  0.46007461    -0.12900
F874        F  0.97647663  0.06876099  0.43377590    -0.13400
F875        F  0.05106661  0.09988779  0.47618512    -0.15700
F876        F  0.96465258  0.11589845  0.41891650    -0.14300
F877        F  0.99753079  0.15433397  0.39101649    -0.14300
F878        F  0.96252479  0.20661473  0.47393792    -0.15700
C879        C  0.72083237  0.15759373  0.24818278     0.14400
C880        C  0.69512520  0.16353794  0.24327606     0.01300
C881        C  0.68783285  0.18875157  0.24076178     0.16300
C882        C  0.70592118  0.20758159  0.24240523     0.25700
C883        C  0.73157420  0.20165184  0.24715281    -0.40600
C884        C  0.73887684  0.17655205  0.25040604     0.32800
C885        C  0.67577465  0.14365229  0.24098306     0.01400
F886        F  0.66306609  0.19520760  0.23703723    -0.12900
F887        F  0.76362661  0.17031829  0.25461661    -0.13500
C888        C  0.67268614  0.12625173  0.26041892     0.16300
C889        C  0.65370136  0.10822283  0.25877560     0.25700
C890        C  0.63696761  0.10756506  0.23790934    -0.40600
C891        C  0.64020963  0.12492349  0.21836492     0.32700
C892        C  0.65961820  0.14254899  0.21975124     0.14400
F893        F  0.68763226  0.12711488  0.28138001    -0.12900
F894        F  0.62410548  0.12540107  0.19824472    -0.13400
F895        F  0.65185285  0.09125044  0.27757179    -0.15700
F896        F  0.66260758  0.15862343  0.20030853    -0.14300
F897        F  0.72859961  0.13340507  0.25003884    -0.14300
F898        F  0.69828290  0.23173937  0.23977100    -0.15700
C899        C  0.76049247  0.35871764  0.15879931     0.14400
C900        C  0.76083382  0.33352900  0.15130311     0.01300
C901        C  0.75992764  0.32735079  0.12554911     0.16300
C902        C  0.75930164  0.34623602  0.10744300     0.25700
C903        C  0.75916843  0.37142962  0.11495990    -0.40600
C904        C  0.75947565  0.37757796  0.14071989     0.32800
C905        C  0.76256540  0.31376742  0.17045154     0.01400
F906        F  0.76012969  0.30306745  0.11801424    -0.12900
F907        F  0.75928956  0.40184796  0.14828409    -0.13500
C908        C  0.74156883  0.29872558  0.17533119     0.16300
C909        C  0.74295479  0.28054455  0.19408612     0.25700
C910        C  0.76556922  0.27696128  0.20820445    -0.40600
C911        C  0.78668058  0.29207889  0.20298417     0.32700
C912        C  0.78510970  0.31032409  0.18430227     0.14400
F913        F  0.71949598  0.30207198  0.16229288    -0.12900
F914        F  0.80901319  0.28910224  0.21566175    -0.13400
F915        F  0.72186895  0.26696862  0.19875892    -0.15700
F916        F  0.80571438  0.32455834  0.17952512    -0.14300
F917        F  0.76109210  0.36495747  0.18364716    -0.14300
F918        F  0.75873543  0.34001358  0.08259375    -0.15700
C919        C  0.81599570  0.24652468  0.32980069     0.14400
C920        C  0.84194546  0.24796717  0.32390065     0.01300
C921        C  0.84937477  0.24782107  0.29848841     0.16300
C922        C  0.83112636  0.24595441  0.27929475     0.25700
C923        C  0.80529429  0.24369510  0.28527602    -0.40600
C924        C  0.79782308  0.24413727  0.31062468     0.32800
C925        C  0.86126463  0.24863945  0.34427201     0.01400
F926        F  0.87434691  0.24874235  0.29229858    -0.12900
F927        F  0.77285502  0.24295433  0.31675824    -0.13500
C928        C  0.86243721  0.22935836  0.36210833     0.16300
C929        C  0.88078872  0.22965143  0.38124511     0.25700
C930        C  0.89856223  0.24908007  0.38267169    -0.40600
C931        C  0.89739898  0.26836076  0.36476570     0.32700
C932        C  0.87880221  0.26821208  0.34581474     0.14400
F933        F  0.84606117  0.20995212  0.36069012    -0.12900
F934        F  0.91469269  0.28701066  0.36520438    -0.13400
F935        F  0.88098457  0.21106343  0.39855809    -0.15700
F936        F  0.87782679  0.28726139  0.32904033    -0.14300
F937        F  0.80826999  0.24771267  0.35415551    -0.14300
F938        F  0.83873152  0.24553900  0.25488563    -0.15700
C939        C  0.05502550  0.58809017  0.84107322     0.14400
C940        C  0.05573208  0.56377964  0.85083753     0.01300
C941        C  0.06356749  0.54382009  0.83523148     0.16300
C942        C  0.07104738  0.54813325  0.81046373     0.25700
C943        C  0.07058845  0.57245857  0.80071048    -0.40600
C944        C  0.06226096  0.59238941  0.81615634     0.32800
C945        C  0.04773755  0.55870434  0.87699036     0.01400
F946        F  0.06390426  0.52003034  0.84398968    -0.12900
F947        F  0.06117566  0.61604865  0.80710233    -0.13500
C948        C  0.02284201  0.56444956  0.88483763     0.16300
C949        C  0.01358253  0.55468304  0.90738886     0.25700
C950        C  0.02904709  0.53882547  0.92206435    -0.40600
C951        C  0.05462533  0.53508051  0.91532800     0.32700
C952        C  0.06397007  0.54518911  0.89314696     0.14400
F953        F  0.00680632  0.57759659  0.86962485    -0.12900
F954        F  0.07015644  0.52020693  0.92938866    -0.13400
F955        F  0.98881953  0.55855733  0.91343000    -0.15700
F956        F  0.08847351  0.54042278  0.88661539    -0.14300
F957        F  0.04788690  0.60771114  0.85582978    -0.14300
F958        F  0.07965158  0.52862819  0.79631808    -0.15700
C959        C  0.17214974  0.97415374  0.55280748     0.14400
C960        C  0.15760239  0.98617256  0.57156006     0.01300
C961        C  0.16767678  0.98835647  0.59606173     0.16300
C962        C  0.19179525  0.97850655  0.60175761     0.25700
C963        C  0.20628281  0.96636374  0.58302527    -0.40600
C964        C  0.19632341  0.96445723  0.55845107     0.32800
C965        C  0.13179953  0.99592995  0.56539435     0.01400
F966        F  0.15415406  0.00004509  0.61445459    -0.12900
F967        F  0.20944489  0.95206208  0.54022835    -0.13500
C968        C  0.11022502  0.98649651  0.57742575     0.16300
C969        C  0.08576729  0.99306054  0.56894526     0.25700
C970        C  0.08246876  0.00912698  0.54816063    -0.40600
C971        C  0.10420299  0.02016986  0.53763601     0.32700
C972        C  0.12854116  0.01349340  0.54608720     0.14400
F973        F  0.11281553  0.96958540  0.59626910    -0.12900
F974        F  0.10214868  0.03625775  0.51800748    -0.13400
F975        F  0.06545418  0.98239702  0.58009275    -0.15700
F976        F  0.14907445  0.02349042  0.53469834    -0.14300
F977        F  0.16246318  0.97089331  0.52923558    -0.14300
F978        F  0.20101191  0.98070311  0.62564005    -0.15700
C979        C  0.17739992  0.70238074  0.74360377     0.14400
C980        C  0.18578315  0.67734019  0.74303852     0.01300
C981        C  0.21200564  0.67204425  0.74246990     0.16300
C982        C  0.22955126  0.69142450  0.74331218     0.25700
C983        C  0.22114020  0.71639925  0.74415105    -0.40600
C984        C  0.19497300  0.72177901  0.74385485     0.32800
C985        C  0.16725071  0.65677085  0.74394814     0.01400
F986        F  0.22060592  0.64807776  0.74101502    -0.12900
F987        F  0.18645534  0.74578429  0.74502383    -0.13500
C988        C  0.14748458  0.65524532  0.72605301     0.16300
C989        C  0.12945014  0.63634174  0.72757930     0.25700
C990        C  0.13110357  0.61840134  0.74682618    -0.40600
C991        C  0.15123773  0.61965888  0.76440151     0.32700
C992        C  0.16898595  0.63879775  0.76310988     0.14400
F993        F  0.14564214  0.67209643  0.70708038    -0.12900
F994        F  0.15379855  0.60229253  0.78283130    -0.13400
F995        F  0.10988147  0.63610181  0.71074560    -0.15700
F996        F  0.18752723  0.64014729  0.78100562    -0.14300
F997        F  0.15222189  0.70803385  0.74490403    -0.14300
F998        F  0.25478529  0.68582427  0.74295572    -0.15700
C999        C  0.26858719  0.83852585  0.70292574     0.14400
C1000       C  0.24985464  0.83972239  0.68408459     0.01300
C1001       C  0.23266355  0.82008392  0.68127122     0.16300
C1002       C  0.23421132  0.79932246  0.69709281     0.25700
C1003       C  0.25322951  0.79775681  0.71603390    -0.40600
C1004       C  0.27040702  0.81776790  0.71868563     0.32800
C1005       C  0.24946162  0.86073475  0.66628532     0.01400
F1006       F  0.21440579  0.82099941  0.66305434    -0.12900
F1007       F  0.28925873  0.81735099  0.73629685    -0.13500
C1008       C  0.25761743  0.85685962  0.64144409     0.16300
C1009       C  0.25877422  0.87685764  0.62476883     0.25700
C1010       C  0.25150696  0.90099159  0.63263492    -0.40600
C1011       C  0.24292863  0.90482006  0.65741799     0.32700
C1012       C  0.24207927  0.88479471  0.67421916     0.14400
F1013       F  0.26488196  0.83372404  0.63351221    -0.12900
F1014       F  0.23591606  0.92800100  0.66544232    -0.13400
F1015       F  0.26663178  0.87261305  0.60077746    -0.15700
F1016       F  0.23404462  0.88880512  0.69818551    -0.14300
F1017       F  0.28564613  0.85723940  0.70556734    -0.14300
F1018       F  0.21720962  0.78071641  0.69348036    -0.15700
C1019       C  0.34095300  0.74876106  0.79530822     0.14400
C1020       C  0.33493514  0.74688013  0.82100008     0.01300
C1021       C  0.30934050  0.74785330  0.82842320     0.16300
C1022       C  0.29003927  0.75015738  0.81031950     0.25700
C1023       C  0.29613692  0.75197642  0.78468171    -0.40600
C1024       C  0.32166354  0.75151330  0.77728030     0.32800
C1025       C  0.35540998  0.74407359  0.83999278     0.01400
F1026       F  0.30310418  0.74698180  0.85320214    -0.12900
F1027       F  0.32782903  0.75285515  0.75251946    -0.13500
C1028       C  0.37438055  0.76222174  0.84208544     0.16300
C1029       C  0.39367291  0.75976282  0.86009687     0.25700
C1030       C  0.39403275  0.73935630  0.87671887    -0.40600
C1031       C  0.37530118  0.72092887  0.87429594     0.32700
C1032       C  0.35615213  0.72326523  0.85602395     0.14400
F1033       F  0.37378663  0.78273369  0.82714534    -0.12900
F1034       F  0.37489336  0.70122469  0.89028032    -0.13400
F1035       F  0.41192036  0.77748998  0.86146298    -0.15700
F1036       F  0.33823682  0.70527498  0.85404390    -0.14300
F1037       F  0.36550337  0.74733562  0.78766812    -0.14300
F1038       F  0.26541472  0.75112328  0.81780451    -0.15700
C1039       C  0.60154925  0.82647748  0.03270485     0.14400
C1040       C  0.57767052  0.83830848  0.03469409     0.01300
C1041       C  0.55722361  0.82492102  0.04471265     0.16300
C1042       C  0.56076729  0.80052641  0.05346285     0.25700
C1043       C  0.58486272  0.78902110  0.05245646    -0.40600
C1044       C  0.60515501  0.80206050  0.04165343     0.32800
C1045       C  0.57388646  0.86490625  0.02754705     0.01400
F1046       F  0.53383096  0.83573395  0.04647244    -0.12900
F1047       F  0.62856023  0.79124888  0.04016783    -0.13500
C1048       C  0.57599971  0.87268433  0.00234497     0.16300
C1049       C  0.56756902  0.89665314  0.99518739     0.25700
C1050       C  0.55684026  0.91299531  0.01317077    -0.40600
C1051       C  0.55705430  0.90594034  0.03867722     0.32700
C1052       C  0.56554819  0.88219292  0.04579312     0.14400
F1053       F  0.58423105  0.85641594  0.98437847    -0.12900
F1054       F  0.54734209  0.92151261  0.05655150    -0.13400
F1055       F  0.56751349  0.90286544  0.97041103    -0.15700
F1056       F  0.56426264  0.87552541  0.07041248    -0.14300
F1057       F  0.62158247  0.83891785  0.02307290    -0.14300
F1058       F  0.54093693  0.78863039  0.06417766    -0.15700
C1059       C  0.41735918  0.82250293  0.96354626     0.14400
C1060       C  0.44126323  0.83374637  0.96249724     0.01300
C1061       C  0.46268003  0.81933044  0.95578550     0.16300
C1062       C  0.45997985  0.79444668  0.94836462     0.25700
C1063       C  0.43578022  0.78364743  0.94758989    -0.40600
C1064       C  0.41463071  0.79755507  0.95617165     0.32800
C1065       C  0.44402863  0.86085821  0.96643891     0.01400
F1066       F  0.48607518  0.82979777  0.95527106    -0.12900
F1067       F  0.39112885  0.78730295  0.95612282    -0.13500
C1068       C  0.44098595  0.87159447  0.99045024     0.16300
C1069       C  0.44871532  0.89618257  0.99496195     0.25700
C1070       C  0.45965040  0.91007614  0.97546762    -0.40600
C1071       C  0.46037116  0.90001181  0.95095890     0.32700
C1072       C  0.45250351  0.87561360  0.94646252     0.14400
F1073       F  0.43255518  0.85764398  0.00990865    -0.12900
F1074       F  0.47024071  0.91328949  0.93168601    -0.13400
F1075       F  0.44797058  0.90540575  0.01884831    -0.15700
F1076       F  0.45459107  0.86581828  0.92287648    -0.14300
F1077       F  0.39648956  0.83608600  0.97015007    -0.14300
F1078       F  0.48067237  0.78160399  0.93996599    -0.15700
C1079       C  0.58111142  0.01918924  0.09492897     0.14400
C1080       C  0.57152505  0.00910830  0.11729336     0.01300
C1081       C  0.55481019  0.98892595  0.11573903     0.16300
C1082       C  0.54631153  0.98010162  0.09230780     0.25700
C1083       C  0.55391931  0.99169737  0.06971802    -0.40600
C1084       C  0.57238307  0.01064013  0.07134503     0.32800
C1085       C  0.57695114  0.02097759  0.14213575     0.01400
F1086       F  0.54578099  0.97843726  0.13708601    -0.12900
F1087       F  0.58081386  0.02209573  0.05027354    -0.13500
C1088       C  0.55717399  0.03276768  0.15554157     0.16300
C1089       C  0.56189911  0.04423275  0.17889006     0.25700
C1090       C  0.58655163  0.04414288  0.18936541    -0.40600
C1091       C  0.60634813  0.03220518  0.17595299     0.32700
C1092       C  0.60158266  0.02078395  0.15252636     0.14400
F1093       F  0.53333961  0.03380149  0.14559505    -0.12900
F1094       F  0.63027979  0.03134122  0.18569067    -0.13400
F1095       F  0.54254102  0.05629837  0.19078820    -0.15700
F1096       F  0.62094623  0.00928478  0.14010506    -0.14300
F1097       F  0.59757959  0.03853034  0.09594232    -0.14300
F1098       F  0.52922954  0.96126691  0.09203165    -0.15700
C1099       C  0.42191906  0.98032409  0.16266760     0.14400
C1100       C  0.44567700  0.97640341  0.15132511     0.01300
C1101       C  0.46433263  0.96226011  0.16416687     0.16300
C1102       C  0.45893250  0.95130870  0.18745675     0.25700
C1103       C  0.43479009  0.95436552  0.19833551    -0.40600
C1104       C  0.41653423  0.96945991  0.18597126     0.32800
C1105       C  0.45055638  0.98561371  0.12544452     0.01400
F1106       F  0.48734114  0.95792648  0.15346771    -0.12900
F1107       F  0.39325128  0.97325976  0.19627795    -0.13500
C1108       C  0.46978954  0.00297721  0.12109611     0.16300
C1109       C  0.47627329  0.00955539  0.09644700     0.25700
C1110       C  0.46378236  0.99860895  0.07547704    -0.40600
C1111       C  0.44353814  0.98218287  0.08005533     0.32700
C1112       C  0.43701799  0.97581049  0.10476872     0.14400
F1113       F  0.48275807  0.01310394  0.14080403    -0.12900
F1114       F  0.43079756  0.97123512  0.06064702    -0.13400
F1115       F  0.49571252  0.02568854  0.09324141    -0.15700
F1116       F  0.41838539  0.95888994  0.10847139    -0.14300
F1117       F  0.40379225  0.99436605  0.15093831    -0.14300
F1118       F  0.47673539  0.93640860  0.19857617    -0.15700
C1119       C  0.46111920  0.16151161  0.02749988     0.14400
C1120       C  0.43980487  0.14717400  0.02102117     0.01300
C1121       C  0.41546156  0.15612970  0.02714928     0.16300
C1122       C  0.41245863  0.17898236  0.03979583     0.25700
C1123       C  0.43385272  0.19306149  0.04713402    -0.40600
C1124       C  0.45823789  0.18410267  0.04061921     0.32800
C1125       C  0.44335701  0.12219864  0.00932759     0.01400
F1126       F  0.39457823  0.14271178  0.02084503    -0.12900
F1127       F  0.47941615  0.19656978  0.04792727    -0.13500
C1128       C  0.43728468  0.10063258  0.02286467     0.16300
C1129       C  0.44464277  0.07702925  0.01390765     0.25700
C1130       C  0.45816733  0.07458692  0.99116705    -0.40600
C1131       C  0.46227247  0.09611658  0.97661266     0.32700
C1132       C  0.45507778  0.11971475  0.98574137     0.14400
F1133       F  0.42582440  0.10255681  0.04565970    -0.12900
F1134       F  0.47506124  0.09465984  0.95450255    -0.13400
F1135       F  0.43967693  0.05670234  0.02817908    -0.15700
F1136       F  0.46058110  0.14030083  0.97207627    -0.14300
F1137       F  0.48487298  0.15306062  0.02202832    -0.14300
F1138       F  0.38855340  0.18741981  0.04465792    -0.15700
C1139       C  0.56948674  0.17157410  0.98537803     0.14400
C1140       C  0.54909725  0.15736163  0.97617029     0.01300
C1141       C  0.53253681  0.16776484  0.95801754     0.16300
C1142       C  0.53722462  0.19141829  0.94809659     0.25700
C1143       C  0.55859864  0.20487038  0.95610366    -0.40600
C1144       C  0.57432144  0.19511378  0.97524549     0.32800
C1145       C  0.54644862  0.13091299  0.98360276     0.01400
F1146       F  0.51238098  0.15457026  0.94925291    -0.12900
F1147       F  0.59495104  0.20799567  0.98333555    -0.13500
C1148       C  0.54109504  0.12439161  0.00856541     0.16300
C1149       C  0.53716099  0.09937209  0.01492384     0.25700
C1150       C  0.53869875  0.08036014  0.99635981    -0.40600
C1151       C  0.54559738  0.08698232  0.97166575     0.32700
C1152       C  0.54929180  0.11198443  0.96539061     0.14400
F1153       F  0.53866355  0.14236549  0.02657916    -0.12900
F1154       F  0.54798205  0.06941916  0.95324071    -0.13400
F1155       F  0.53074317  0.09402183  0.03902956    -0.15700
F1156       F  0.55542162  0.11780890  0.94132012    -0.14300
F1157       F  0.58558082  0.16202016  0.00305694    -0.14300
F1158       F  0.52183851  0.20053460  0.92957527    -0.15700
C1159       C  0.99661862  0.13317245  0.53599226     0.14400
C1160       C  0.01981876  0.13573290  0.54900323     0.01300
C1161       C  0.03307264  0.11411215  0.55653853     0.16300
C1162       C  0.02414283  0.09038468  0.54988647     0.25700
C1163       C  0.00172276  0.08768790  0.53534781    -0.40600
C1164       C  0.98766674  0.10942390  0.52910700     0.32800
C1165       C  0.03112163  0.16078713  0.55344272     0.01400
F1166       F  0.05541947  0.11601039  0.56934344    -0.12900
F1167       F  0.96600894  0.10788447  0.51513444    -0.13500
C1168       C  0.03459365  0.17004709  0.57804472     0.16300
C1169       C  0.04711372  0.19272942  0.58224621     0.25700
C1170       C  0.05666576  0.20656644  0.56189010    -0.40600
C1171       C  0.05277205  0.19741900  0.53722019     0.32700
C1172       C  0.04006185  0.17482335  0.53306665     0.14400
F1173       F  0.02589605  0.15702441  0.59803904    -0.12900
F1174       F  0.06235550  0.20972873  0.51716544    -0.13400
F1175       F  0.04980773  0.20122567  0.60627747    -0.15700
F1176       F  0.03744683  0.16606698  0.50914704    -0.14300
F1177       F  0.98282160  0.15377603  0.52965820    -0.14300
F1178       F  0.03808150  0.07007294  0.55693152    -0.15700
C1179       C  0.45330553  0.98250742  0.87153919     0.14400
C1180       C  0.43771129  0.00382187  0.86984743     0.01300
C1181       C  0.42900927  0.01526487  0.89208904     0.16300
C1182       C  0.43760412  0.00690997  0.91568193     0.25700
C1183       C  0.45553571  0.98715033  0.91742678    -0.40600
C1184       C  0.46216438  0.97419903  0.89504744     0.32800
C1185       C  0.43343486  0.01603344  0.84513361     0.01400
F1186       F  0.41329324  0.03550844  0.89086172    -0.12900
F1187       F  0.47882144  0.95466557  0.89557807    -0.13500
C1188       C  0.41796432  0.00514141  0.82643640     0.16300
C1189       C  0.41454844  0.01693429  0.80306034     0.25700
C1190       C  0.42683028  0.03953649  0.79804021    -0.40600
C1191       C  0.44245107  0.05025761  0.81663089     0.32700
C1192       C  0.44573494  0.03860880  0.83998147     0.14400
F1193       F  0.40587781  0.98337542  0.83100354    -0.12900
F1194       F  0.45430237  0.07218931  0.81220126    -0.13400
F1195       F  0.39903028  0.00652766  0.78543570    -0.15700
F1196       F  0.46115748  0.04923236  0.85756827    -0.14300
F1197       F  0.46162992  0.97095396  0.85025236    -0.14300
F1198       F  0.42989968  0.01956954  0.93657108    -0.15700
C1199       C  0.13017069  0.45186900  0.00814612     0.14400
C1200       C  0.13412912  0.43419255  0.98878783     0.01300
C1201       C  0.11283833  0.42164820  0.97884225     0.16300
C1202       C  0.08813382  0.42781779  0.98685345     0.25700
C1203       C  0.08398162  0.44700492  0.00478357    -0.40600
C1204       C  0.10550492  0.45825179  0.01600774     0.32800
C1205       C  0.16013088  0.42999073  0.97799654     0.01400
F1206       F  0.11574226  0.40444531  0.96015018    -0.12900
F1207       F  0.10279711  0.47640907  0.03379615    -0.13500
C1208       C  0.17063971  0.40579698  0.97577038     0.16300
C1209       C  0.19439900  0.40191713  0.96438527     0.25700
C1210       C  0.20834010  0.42213496  0.95480779    -0.40600
C1211       C  0.19809660  0.44640101  0.95763976     0.32700
C1212       C  0.17431291  0.45025422  0.96900223     0.14400
F1213       F  0.15793350  0.38581472  0.98473278    -0.12900
F1214       F  0.21045473  0.46637197  0.94819872    -0.13400
F1215       F  0.20381040  0.37825151  0.96280820    -0.15700
F1216       F  0.16458910  0.47381267  0.97013383    -0.14300
F1217       F  0.15026869  0.46349046  0.01910815    -0.14300
F1218       F  0.06822052  0.41586925  0.97592529    -0.15700
C1219       C  0.16901501  0.25871168  0.62357265     0.14400
C1220       C  0.16261294  0.25149446  0.64811884     0.01300
C1221       C  0.13760273  0.24433958  0.65323016     0.16300
C1222       C  0.11920426  0.24423355  0.63407062     0.25700
C1223       C  0.12550325  0.25130416  0.60939839    -0.40600
C1224       C  0.15057810  0.25864213  0.60432509     0.32800
C1225       C  0.18201574  0.25055590  0.66842205     0.01400
F1226       F  0.13099631  0.23764466  0.67693029    -0.12900
F1227       F  0.15734544  0.26509881  0.58060735    -0.13500
C1228       C  0.19087296  0.27257417  0.67981001     0.16300
C1229       C  0.20793480  0.27141507  0.70021591     0.25700
C1230       C  0.21663287  0.24813999  0.70936718    -0.40600
C1231       C  0.20789281  0.22613334  0.69755458     0.32700
C1232       C  0.19071491  0.22738392  0.67736432     0.14400
F1233       F  0.18262437  0.29517902  0.67143177    -0.12900
F1234       F  0.21539780  0.20328096  0.70593015    -0.13400
F1235       F  0.21621387  0.29307360  0.71070138    -0.15700
F1236       F  0.18242128  0.20588922  0.66653137    -0.14300
F1237       F  0.19322404  0.26527981  0.61817998    -0.14300
F1238       F  0.09505181  0.23771282  0.63974270    -0.15700
C1239       C  0.33064679  0.18947399  0.75346040     0.14400
C1240       C  0.32246987  0.16460952  0.75123859     0.01300
C1241       C  0.29627173  0.15981452  0.74942609     0.16300
C1242       C  0.27861646  0.17957125  0.74961912     0.25700
C1243       C  0.28687101  0.20434769  0.75211045    -0.40600
C1244       C  0.31297979  0.20913992  0.75419858     0.32800
C1245       C  0.34133301  0.14380284  0.75134230     0.01400
F1246       F  0.28777155  0.13598712  0.74800282    -0.12900
F1247       F  0.32142140  0.23296751  0.75602577    -0.13500
C1248       C  0.35871444  0.14145871  0.77144898     0.16300
C1249       C  0.37713018  0.12247450  0.77137547     0.25700
C1250       C  0.37834845  0.10512912  0.75134867    -0.40600
C1251       C  0.36074797  0.10729156  0.73131852     0.32700
C1252       C  0.34245034  0.12651587  0.73128369     0.14400
F1253       F  0.35776670  0.15755400  0.79131397    -0.12900
F1254       F  0.36104582  0.09060797  0.71194025    -0.13400
F1255       F  0.39424143  0.12147336  0.79064324    -0.15700
F1256       F  0.32615081  0.12855490  0.71141182    -0.14300
F1257       F  0.35582771  0.19474779  0.75436081    -0.14300
F1258       F  0.25341828  0.17449507  0.74801310    -0.15700
C1259       C  0.25900235  0.29413410  0.83258858     0.14400
C1260       C  0.25394189  0.31932539  0.82694194     0.01300
C1261       C  0.24852905  0.32599714  0.80183978     0.16300
C1262       C  0.24800834  0.30780117  0.78276557     0.25700
C1263       C  0.25318743  0.28258417  0.78837631    -0.40600
C1264       C  0.25875810  0.27596853  0.81350782     0.32800
C1265       C  0.25407447  0.33857672  0.84724160     0.01400
F1266       F  0.24422412  0.35026922  0.79570572    -0.12900
F1267       F  0.26319367  0.25175794  0.81980710    -0.13500
C1268       C  0.27568714  0.34189841  0.86257895     0.16300
C1269       C  0.27566172  0.35982076  0.88191817     0.25700
C1270       C  0.25420233  0.37538312  0.88591349    -0.40600
C1271       C  0.23268207  0.37213380  0.87022991     0.32700
C1272       C  0.23251756  0.35369947  0.85141878     0.14400
F1273       F  0.29700582  0.32793542  0.85863855    -0.12900
F1274       F  0.21189964  0.38718182  0.87259632    -0.13400
F1275       F  0.29652044  0.36150175  0.89703754    -0.15700
F1276       F  0.21109646  0.35042894  0.83739882    -0.14300
F1277       F  0.26356871  0.28700418  0.85674329    -0.14300
F1278       F  0.24313603  0.31499276  0.75869425    -0.15700
C1279       C  0.89316758  0.56153874  0.97795222     0.14400
C1280       C  0.87179306  0.54911461  0.98719368     0.01300
C1281       C  0.87525799  0.53106017  0.00601203     0.16300
C1282       C  0.89971412  0.52451435  0.01452614     0.25700
C1283       C  0.92144736  0.53566836  0.00407911    -0.40600
C1284       C  0.91773091  0.55492113  0.98625925     0.32800
C1285       C  0.84604170  0.55395022  0.97630443     0.01400
F1286       F  0.85485462  0.51927420  0.01571839    -0.12900
F1287       F  0.93787800  0.56650064  0.97577491    -0.13500
C1288       C  0.83357897  0.53519996  0.96236697     0.16300
C1289       C  0.80952383  0.53974187  0.95160391     0.25700
C1290       C  0.79748909  0.56315597  0.95451830    -0.40600
C1291       C  0.80991276  0.58184845  0.96861525     0.32700
C1292       C  0.83394288  0.57727824  0.97941444     0.14400
F1293       F  0.84516892  0.51275135  0.95842273    -0.12900
F1294       F  0.79872441  0.60459234  0.97188712    -0.13400
F1295       F  0.79850436  0.52165413  0.93733517    -0.15700
F1296       F  0.84540597  0.59561303  0.99298289    -0.14300
F1297       F  0.89035945  0.57912903  0.95977851    -0.14300
F1298       F  0.90203664  0.50630561  0.03212517    -0.15700
C1299       C  0.94789215  0.89097162  0.55603033     0.14400
C1300       C  0.96646259  0.87509682  0.56665222     0.01300
C1301       C  0.99127005  0.88401946  0.57033044     0.16300
C1302       C  0.99789155  0.90769828  0.56150069     0.25700
C1303       C  0.97981779  0.92255040  0.54870205    -0.40600
C1304       C  0.95453889  0.91443780  0.54699972     0.32800
C1305       C  0.96027729  0.84863245  0.57154512     0.01400
F1306       F  0.00953531  0.86906046  0.58059938    -0.12900
F1307       F  0.93657630  0.92870290  0.53527761    -0.13500
C1308       C  0.95196922  0.83330829  0.55155120     0.16300
C1309       C  0.94404970  0.80891113  0.55605560     0.25700
C1310       C  0.94437395  0.79931727  0.58067144    -0.40600
C1311       C  0.95384486  0.81428671  0.60051789     0.32700
C1312       C  0.96174570  0.83875442  0.59597357     0.14400
F1313       F  0.95110739  0.84219887  0.52762823    -0.12900
F1314       F  0.95509149  0.80530869  0.62438953    -0.13400
F1315       F  0.93479693  0.79515072  0.53652777    -0.15700
F1316       F  0.96988348  0.85311111  0.61555203    -0.14300
F1317       F  0.92354286  0.88317456  0.55325804    -0.14300
F1318       F  0.02248821  0.91499265  0.56318542    -0.15700
C1319       C  0.76778853  0.67273085  0.81625657     0.14400
C1320       C  0.74854848  0.67126913  0.83430232     0.01300
C1321       C  0.72827386  0.68846665  0.83348649     0.16300
C1322       C  0.72692482  0.70659971  0.81456871     0.25700
C1323       C  0.74602556  0.70802111  0.79600694    -0.40600
C1324       C  0.76668603  0.69090805  0.79741082     0.32800
C1325       C  0.74930904  0.65135626  0.85357985     0.01400
F1326       F  0.70939080  0.68730603  0.85074024    -0.12900
F1327       F  0.78596814  0.69150769  0.78057948    -0.13500
C1328       C  0.75289413  0.65729943  0.87919877     0.16300
C1329       C  0.75354029  0.63837724  0.89733751     0.25700
C1330       C  0.75017746  0.61330807  0.89014346    -0.40600
C1331       C  0.74655903  0.60738551  0.86453054     0.32700
C1332       C  0.74632323  0.62624972  0.84636523     0.14400
F1333       F  0.75601614  0.68140649  0.88656733    -0.12900
F1334       F  0.74361926  0.58326591  0.85711133    -0.13400
F1335       F  0.75700063  0.64452342  0.92198755    -0.15700
F1336       F  0.74283892  0.62008378  0.82172216    -0.14300
F1337       F  0.78782501  0.65654298  0.81698997    -0.14300
F1338       F  0.70671381  0.72255958  0.81449718    -0.15700
C1339       C  0.86510614  0.75999589  0.67018821     0.14400
C1340       C  0.84190799  0.74856068  0.66436478     0.01300
C1341       C  0.83832461  0.73771256  0.64047889     0.16300
C1342       C  0.85768795  0.73833067  0.62253978     0.25700
C1343       C  0.88113387  0.74958792  0.62832723    -0.40600
C1344       C  0.88462670  0.76040192  0.65240027     0.32800
C1345       C  0.82148422  0.74771989  0.68331097     0.01400
F1346       F  0.81587218  0.72684495  0.63443543    -0.12900
F1347       F  0.90712522  0.77093974  0.65890561    -0.13500
C1348       C  0.80608947  0.76877657  0.68782836     0.16300
C1349       C  0.78663698  0.76792380  0.70567958     0.25700
C1350       C  0.78229771  0.74592158  0.71950162    -0.40600
C1351       C  0.79797420  0.72484032  0.71482703     0.32700
C1352       C  0.81731245  0.72578049  0.69687920     0.14400
F1353       F  0.80986200  0.79016984  0.67481854    -0.12900
F1354       F  0.79437131  0.70306914  0.72721234    -0.13400
F1355       F  0.77245073  0.78885860  0.70970252    -0.15700
F1356       F  0.83212221  0.70525279  0.69278371    -0.14300
F1357       F  0.86891979  0.77050060  0.69325188    -0.14300
F1358       F  0.85321391  0.72858063  0.59925859    -0.15700
C1359       C  0.53109928  0.95306460  0.82410358     0.14400
C1360       C  0.55078802  0.96845014  0.83316343     0.01300
C1361       C  0.57254356  0.97138509  0.81824048     0.16300
C1362       C  0.57486117  0.95863635  0.79514039     0.25700
C1363       C  0.55537922  0.94290964  0.78638696    -0.40600
C1364       C  0.53334820  0.94049486  0.80090418     0.32800
C1365       C  0.54887700  0.98044829  0.85859878     0.01400
F1366       F  0.59165904  0.98642015  0.82616730    -0.12900
F1367       F  0.51460856  0.92488368  0.79324353    -0.13500
C1368       C  0.56640799  0.97448040  0.87788662     0.16300
C1369       C  0.56259761  0.98306409  0.90269903     0.25700
C1370       C  0.54119416  0.99795722  0.90878740    -0.40600
C1371       C  0.52483063  0.00553092  0.88886675     0.32700
C1372       C  0.52852598  0.99667369  0.86421843     0.14400
F1373       F  0.58642349  0.95902086  0.87304093    -0.12900
F1374       F  0.50421991  0.02033979  0.89332879    -0.13400
F1375       F  0.57924991  0.97575837  0.92095425    -0.15700
F1376       F  0.51168991  0.00339545  0.84588182    -0.14300
F1377       F  0.51021701  0.94918478  0.83836836    -0.14300
F1378       F  0.59640625  0.96119273  0.78149865    -0.15700
C1379       C  0.61550361  0.82751963  0.74192424     0.14400
C1380       C  0.63972948  0.83296698  0.75183529     0.01300
C1381       C  0.64461133  0.85737120  0.76041317     0.16300
C1382       C  0.62606928  0.87616230  0.75827864     0.25700
C1383       C  0.60200760  0.87093947  0.74783718    -0.40600
C1384       C  0.59680007  0.84632752  0.73997468     0.32800
C1385       C  0.66043903  0.81378388  0.75212132     0.01400
F1386       F  0.66750360  0.86305859  0.77083086    -0.12900
F1387       F  0.57350956  0.84043189  0.73064345    -0.13500
C1388       C  0.68351473  0.81861218  0.73999554     0.16300
C1389       C  0.70359579  0.80132203  0.74085787     0.25700
C1390       C  0.70109240  0.77850006  0.75371756    -0.40600
C1391       C  0.67770022  0.77344608  0.76545090     0.32700
C1392       C  0.65763745  0.79093780  0.76470189     0.14400
F1393       F  0.68661309  0.84019925  0.72711324    -0.12900
F1394       F  0.67402849  0.75146341  0.77744397    -0.13400
F1395       F  0.72571149  0.80737325  0.72952261    -0.15700
F1396       F  0.63565532  0.78575842  0.77676147    -0.14300
F1397       F  0.61016621  0.80415264  0.73348724    -0.14300
F1398       F  0.63195234  0.89971102  0.76577475    -0.15700
C1399       C  0.46747790  0.31480006  0.03399118     0.14400
C1400       C  0.47808646  0.32920906  0.05351272     0.01300
C1401       C  0.47859238  0.31997964  0.07815610     0.16300
C1402       C  0.46754177  0.29703011  0.08349886     0.25700
C1403       C  0.45564170  0.28305436  0.06422594    -0.40600
C1404       C  0.45623930  0.29192545  0.03929461     0.32800
C1405       C  0.48637654  0.35480865  0.04847001     0.01400
F1406       F  0.48935314  0.33351397  0.09708592    -0.12900
F1407       F  0.44458851  0.27925591  0.02029819    -0.13500
C1408       C  0.47295875  0.37513416  0.05900890     0.16300
C1409       C  0.47841674  0.39947054  0.05180229     0.25700
C1410       C  0.49738726  0.40371676  0.03403316    -0.40600
C1411       C  0.51185229  0.38335433  0.02456126     0.32700
C1412       C  0.50622172  0.35909262  0.03164613     0.14400
F1413       F  0.45354822  0.37129700  0.07517531    -0.12900
F1414       F  0.53040809  0.38662433  0.00720038    -0.13400
F1415       F  0.46463031  0.41876765  0.06153760    -0.15700
F1416       F  0.51955697  0.33973579  0.02139427    -0.14300
F1417       F  0.46668525  0.32358937  0.01002946    -0.14300
F1418       F  0.46820475  0.28860381  0.10758033    -0.15700
C1419       C  0.54919983  0.33892586  0.94658542     0.14400
C1420       C  0.52413107  0.34243807  0.93784071     0.01300
C1421       C  0.51079827  0.32208660  0.92767038     0.16300
C1422       C  0.52246945  0.29856378  0.92606464     0.25700
C1423       C  0.54772660  0.29523869  0.93423068    -0.40600
C1424       C  0.56098632  0.31554625  0.94454272     0.32800
C1425       C  0.51171844  0.36713272  0.94029825     0.01400
F1426       F  0.48665077  0.32514315  0.91890107    -0.12900
F1427       F  0.58526433  0.31259339  0.95294965    -0.13500
C1428       C  0.52334079  0.38848718  0.93056451     0.16300
C1429       C  0.51356439  0.41213185  0.93610969     0.25700
C1430       C  0.49177780  0.41468978  0.95121799    -0.40600
C1431       C  0.47916279  0.39324688  0.95940115     0.32700
C1432       C  0.48915528  0.36967600  0.95409003     0.14400
F1433       F  0.54477235  0.38649386  0.91655252    -0.12900
F1434       F  0.45870707  0.39500473  0.97482175    -0.13400
F1435       F  0.52643131  0.43248879  0.92814660    -0.15700
F1436       F  0.47781421  0.34943458  0.96412929    -0.14300
F1437       F  0.56207860  0.35802927  0.95757084    -0.14300
F1438       F  0.50938382  0.27919663  0.91592054    -0.15700
C1439       C  0.68001365  0.45153702  0.03823142     0.14400
C1440       C  0.66514773  0.46111999  0.05802889     0.01300
C1441       C  0.67453661  0.45989009  0.08283928     0.16300
C1442       C  0.69826845  0.44886015  0.08786352     0.25700
C1443       C  0.71292192  0.43864401  0.06813851    -0.40600
C1444       C  0.70368072  0.44036920  0.04322409     0.32800
C1445       C  0.63914934  0.47079015  0.05289827     0.01400
F1446       F  0.66056030  0.46920298  0.10221598    -0.12900
F1447       F  0.71695245  0.43007682  0.02383755    -0.13500
C1448       C  0.61805820  0.45739009  0.06114156     0.16300
C1449       C  0.59347216  0.46477285  0.05414420     0.25700
C1450       C  0.58938675  0.48562948  0.03846177    -0.40600
C1451       C  0.61057203  0.50006337  0.03159152     0.32700
C1452       C  0.63525237  0.49252108  0.03865083     0.14400
F1453       F  0.62135301  0.43621844  0.07479393    -0.12900
F1454       F  0.60769162  0.52051653  0.01678289    -0.13400
F1455       F  0.57367393  0.45074384  0.06186410    -0.15700
F1456       F  0.65549331  0.50596182  0.03101109    -0.14300
F1457       F  0.67105167  0.45193964  0.01416990    -0.14300
F1458       F  0.70692551  0.44810758  0.11203116    -0.15700
C1459       C  0.62880327  0.49041794  0.96173036     0.14400
C1460       C  0.63111996  0.51299935  0.94870593     0.01300
C1461       C  0.60903209  0.52509294  0.93973829     0.16300
C1462       C  0.58494243  0.51530799  0.94438459     0.25700
C1463       C  0.58229144  0.49328677  0.95820611    -0.40600
C1464       C  0.60469725  0.48048914  0.96637034     0.32800
C1465       C  0.65652816  0.52410265  0.94457816     0.01400
F1466       F  0.61072474  0.54697827  0.92717733    -0.12900
F1467       F  0.60347955  0.45893299  0.97972548    -0.13500
C1468       C  0.66675806  0.52500255  0.92024076     0.16300
C1469       C  0.69041288  0.53605281  0.91615265     0.25700
C1470       C  0.70432432  0.54653534  0.93636240    -0.40600
C1471       C  0.69409600  0.54542610  0.96079235     0.32700
C1472       C  0.67040120  0.53435477  0.96482889     0.14400
F1473       F  0.65376030  0.51514115  0.90040631    -0.12900
F1474       F  0.70648239  0.55609968  0.98057874    -0.13400
F1475       F  0.69979096  0.53644096  0.89238433    -0.15700
F1476       F  0.66050362  0.53451421  0.98837272    -0.14300
F1477       F  0.64993683  0.47815876  0.97016823    -0.14300
F1478       F  0.56406960  0.52773137  0.93578586    -0.15700
C1479       C  0.55186183  0.66490083  0.03737306     0.14400
C1480       C  0.53633490  0.65433839  0.05584620     0.01300
C1481       C  0.53325448  0.66652107  0.07908550     0.16300
C1482       C  0.54616845  0.68867249  0.08417099     0.25700
C1483       C  0.56220118  0.69904783  0.06596817    -0.40600
C1484       C  0.56468941  0.68716584  0.04238987     0.32800
C1485       C  0.52453634  0.62989649  0.05135321     0.01400
F1486       F  0.51788557  0.65676432  0.09688969    -0.12900
F1487       F  0.58050645  0.69645196  0.02473140    -0.13500
C1488       C  0.53228630  0.60905345  0.06562561     0.16300
C1489       C  0.52364550  0.58526241  0.05931073     0.25700
C1490       C  0.50688107  0.58220601  0.03899926    -0.40600
C1491       C  0.49738991  0.60337394  0.02610445     0.32700
C1492       C  0.50656632  0.62699398  0.03195431     0.14400
F1493       F  0.54936459  0.61156023  0.08472665    -0.12900
F1494       F  0.48065021  0.60108941  0.00658957    -0.13400
F1495       F  0.53215854  0.56514310  0.07248444    -0.15700
F1496       F  0.49859410  0.64689167  0.01811498    -0.14300
F1497       F  0.55545298  0.65304182  0.01494056    -0.14300
F1498       F  0.54316331  0.69994719  0.10695165    -0.15700
C1499       C  0.47605401  0.60110469  0.93955347     0.14400
C1500       C  0.48989879  0.62225171  0.94646713     0.01300
C1501       C  0.51384164  0.61966248  0.95792150     0.16300
C1502       C  0.52351232  0.59599975  0.96347166     0.25700
C1503       C  0.50925690  0.57468407  0.95747503    -0.40600
C1504       C  0.48572952  0.57743649  0.94472174     0.32800
C1505       C  0.47920036  0.64708003  0.94169504     0.01400
F1506       F  0.52729267  0.64011503  0.96476787    -0.12900
F1507       F  0.47131870  0.55736655  0.93844153    -0.13500
C1508       C  0.46168402  0.65771085  0.95852722     0.16300
C1509       C  0.45062771  0.68092892  0.95326348     0.25700
C1510       C  0.45673017  0.69346137  0.93094699    -0.40600
C1511       C  0.47448058  0.68280180  0.91425940     0.32700
C1512       C  0.48577189  0.65974208  0.91972097     0.14400
F1513       F  0.45496609  0.64535727  0.97971384    -0.12900
F1514       F  0.48073025  0.69466700  0.89267052    -0.13400
F1515       F  0.43321306  0.69074627  0.96938690    -0.15700
F1516       F  0.50267490  0.64940372  0.90336760    -0.14300
F1517       F  0.45280317  0.60342069  0.92846103    -0.14300
F1518       F  0.54584741  0.59414382  0.97635954    -0.15700
C1519       C  0.38294293  0.52150017  0.06252571     0.14400
C1520       C  0.36211401  0.51081302  0.04993770     0.01300
C1521       C  0.36645253  0.49165285  0.03224196     0.16300
C1522       C  0.39134469  0.48460833  0.02581002     0.25700
C1523       C  0.41231397  0.49720495  0.03654430    -0.40600
C1524       C  0.40779074  0.51480504  0.05586632     0.32800
C1525       C  0.33625579  0.52154678  0.05336848     0.01400
F1526       F  0.34652620  0.48059726  0.02036553    -0.12900
F1527       F  0.42747505  0.52647977  0.06749466    -0.13500
C1528       C  0.32459482  0.53495199  0.03360867     0.16300
C1529       C  0.30123578  0.54718462  0.03725675     0.25700
C1530       C  0.28924609  0.54635452  0.06079411    -0.40600
C1531       C  0.30063744  0.53247681  0.08040706     0.32700
C1532       C  0.32395969  0.52017293  0.07671990     0.14400
F1533       F  0.33658268  0.53738015  0.01120320    -0.12900
F1534       F  0.28935556  0.53129020  0.10330945    -0.13400
F1535       F  0.29111899  0.56113647  0.01831271    -0.15700
F1536       F  0.33479031  0.50730585  0.09606078    -0.14300
F1537       F  0.37925807  0.53976843  0.08001695    -0.14300
F1538       F  0.39472948  0.46687610  0.00769590    -0.15700
C1539       C  0.39547119  0.46717830  0.93280208     0.14400
C1540       C  0.37309311  0.47736090  0.94321586     0.01300
C1541       C  0.37480766  0.49872574  0.95855266     0.16300
C1542       C  0.39858784  0.50887153  0.96455763     0.25700
C1543       C  0.42130853  0.49764384  0.95529045    -0.40600
C1544       C  0.41925915  0.47736839  0.93860684     0.32800
C1545       C  0.34818592  0.46483866  0.93951777     0.01400
F1546       F  0.35351119  0.50880116  0.96900767    -0.12900
F1547       F  0.44045526  0.46690490  0.92847496    -0.13500
C1548       C  0.34450599  0.44065803  0.94894105     0.16300
C1549       C  0.32087776  0.42901626  0.94633271     0.25700
C1550       C  0.30040387  0.44134766  0.93438025    -0.40600
C1551       C  0.30406599  0.46547178  0.92481469     0.32700
C1552       C  0.32775391  0.47715732  0.92742059     0.14400
F1553       F  0.36377501  0.42842578  0.96096064    -0.12900
F1554       F  0.28492911  0.47738085  0.91230539    -0.13400
F1555       F  0.31797177  0.40555109  0.95535599    -0.15700
F1556       F  0.33097308  0.50025946  0.91760349    -0.14300
F1557       F  0.39436594  0.44692751  0.91738463    -0.14300
F1558       F  0.39922603  0.52864487  0.98075525    -0.15700
C1559       C  0.07515505  0.44901334  0.34277496     0.14400
C1560       C  0.06342146  0.47274444  0.34358152     0.01300
C1561       C  0.05893565  0.48540794  0.32080523     0.16300
C1562       C  0.06587485  0.47449405  0.29772412     0.25700
C1563       C  0.07642331  0.45014491  0.29677563    -0.40600
C1564       C  0.08085852  0.43757128  0.31974933     0.32800
C1565       C  0.05427368  0.48317051  0.36799908     0.01400
F1566       F  0.04701553  0.50802353  0.32075444    -0.12900
F1567       F  0.08980508  0.41369765  0.32010914    -0.13500
C1568       C  0.05932854  0.50800513  0.37558381     0.16300
C1569       C  0.04998210  0.51736009  0.39856320     0.25700
C1570       C  0.03645099  0.50165665  0.41455515    -0.40600
C1571       C  0.03204929  0.47679429  0.40723194     0.32700
C1572       C  0.04007373  0.46794314  0.38400460     0.14400
F1573       F  0.07367030  0.52303084  0.36104383    -0.12900
F1574       F  0.01915878  0.46100714  0.42236728    -0.13400
F1575       F  0.05480550  0.54130017  0.40544623    -0.15700
F1576       F  0.03327562  0.44450323  0.37697025    -0.14300
F1577       F  0.08081941  0.43659494  0.36440650    -0.14300
F1578       F  0.06234217  0.48791218  0.27634158    -0.15700
C1579       C  0.94590975  0.48887313  0.38179954     0.14400
C1580       C  0.93536753  0.51228660  0.37591839     0.01300
C1581       C  0.92951474  0.52912260  0.39555682     0.16300
C1582       C  0.93666627  0.52376768  0.42038940     0.25700
C1583       C  0.94985316  0.50154931  0.42592951    -0.40600
C1584       C  0.95295811  0.48340006  0.40659425     0.32800
C1585       C  0.93331993  0.52042968  0.34935841     0.01400
F1586       F  0.91890671  0.55174313  0.39042425    -0.12900
F1587       F  0.96485210  0.46118309  0.41105531    -0.13500
C1588       C  0.90992669  0.52835583  0.33932196     0.16300
C1589       C  0.90861606  0.53886410  0.31526933     0.25700
C1590       C  0.93089997  0.54241876  0.30098823    -0.40600
C1591       C  0.95421555  0.53343934  0.31079748     0.32700
C1592       C  0.95534268  0.52236853  0.33464604     0.14400
F1593       F  0.88837376  0.52631858  0.35306839    -0.12900
F1594       F  0.97622818  0.53677388  0.29813603    -0.13400
F1595       F  0.88545846  0.54585122  0.30612441    -0.15700
F1596       F  0.97827564  0.51494025  0.34405072    -0.14300
F1597       F  0.95078020  0.47188157  0.36327719    -0.14300
F1598       F  0.93257546  0.54122740  0.43860889    -0.15700
C1599       C  0.03434878  0.50110052  0.63525634     0.14400
C1600       C  0.05642499  0.51541190  0.63839742     0.01300
C1601       C  0.07198463  0.51975330  0.61746010     0.16300
C1602       C  0.06431618  0.51214994  0.59341488     0.25700
C1603       C  0.04119594  0.49964504  0.59000308    -0.40600
C1604       C  0.02688926  0.49307184  0.61119418     0.32800
C1605       C  0.06184460  0.52834782  0.66257726     0.01400
F1606       F  0.09389465  0.53272217  0.62013519    -0.12900
F1607       F  0.00426150  0.48135805  0.60834128    -0.13500
C1608       C  0.06559794  0.51502643  0.68506580     0.16300
C1609       C  0.07215104  0.52765758  0.70740419     0.25700
C1610       C  0.07493925  0.55382989  0.70753511    -0.40600
C1611       C  0.06999736  0.56711231  0.68517973     0.32700
C1612       C  0.06355130  0.55452083  0.66299222     0.14400
F1613       F  0.06379941  0.48974945  0.68517971    -0.12900
F1614       F  0.07123394  0.59243144  0.68482237    -0.13400
F1615       F  0.07679290  0.51419976  0.72858063    -0.15700
F1616       F  0.05884642  0.56797105  0.64179555    -0.14300
F1617       F  0.01884143  0.49679512  0.65506340    -0.14300
F1618       F  0.07860888  0.51848428  0.57324525    -0.15700
C1619       C  0.93066386  0.45659805  0.60385313     0.14400
C1620       C  0.93073725  0.47200915  0.62533647     0.01300
C1621       C  0.93699479  0.49724665  0.62288615     0.16300
C1622       C  0.94525347  0.50646540  0.59969168     0.25700
C1623       C  0.94746790  0.49048852  0.57843876    -0.40600
C1624       C  0.93875403  0.46573233  0.58056610     0.32800
C1625       C  0.92726530  0.46103614  0.65063400     0.01400
F1626       F  0.93671263  0.51256650  0.64338460    -0.12900
F1627       F  0.93982023  0.44970091  0.56067473    -0.13500
C1628       C  0.94741219  0.44765634  0.66193943     0.16300
C1629       C  0.94436750  0.43652054  0.68553682     0.25700
C1630       C  0.92100500  0.43838481  0.69811142    -0.40600
C1631       C  0.90093374  0.45211592  0.68691909     0.32700
C1632       C  0.90410509  0.46349553  0.66341591     0.14400
F1633       F  0.96996745  0.44511461  0.64986271    -0.12900
F1634       F  0.87819344  0.45432140  0.69871983    -0.13400
F1635       F  0.96386074  0.42297205  0.69558872    -0.15700
F1636       F  0.88443736  0.47641594  0.65287129    -0.14300
F1637       F  0.92405946  0.43224164  0.60578258    -0.14300
F1638       F  0.95253970  0.53068419  0.59854404    -0.15700
C1639       C  0.06392525  0.39171755  0.53242758     0.14400
C1640       C  0.06017059  0.37164900  0.51569979     0.01300
C1641       C  0.05165596  0.37675564  0.49104330     0.16300
C1642       C  0.04553801  0.40146356  0.48387307     0.25700
C1643       C  0.04834678  0.42161783  0.50132472    -0.40600
C1644       C  0.05827633  0.41623047  0.52531275     0.32800
C1645       C  0.06405616  0.34554471  0.52479221     0.01400
F1646       F  0.04807916  0.35768384  0.47438689    -0.12900
F1647       F  0.06110680  0.43466283  0.54270356    -0.13500
C1648       C  0.04996598  0.33686463  0.54539888     0.16300
C1649       C  0.05480753  0.31316742  0.55554586     0.25700
C1650       C  0.07382659  0.29765066  0.54533981    -0.40600
C1651       C  0.08769269  0.30603016  0.52452485     0.32700
C1652       C  0.08274131  0.32973541  0.51420571     0.14400
F1653       F  0.03168796  0.35155706  0.55594667    -0.12900
F1654       F  0.10640639  0.29144796  0.51459246    -0.13400
F1655       F  0.04146237  0.30563388  0.57590113    -0.15700
F1656       F  0.09689172  0.33765069  0.49456761    -0.14300
F1657       F  0.07254199  0.38753541  0.55619625    -0.14300
F1658       F  0.03577422  0.40525865  0.46037655    -0.15700
C1659       C  0.97264754  0.36659829  0.51057626     0.14400
C1660       C  0.95798395  0.36358289  0.48853965     0.01300
C1661       C  0.94813945  0.38466596  0.47616959     0.16300
C1662       C  0.95355414  0.40844850  0.48510983     0.25700
C1663       C  0.96950147  0.41167568  0.50633162    -0.40600
C1664       C  0.97840380  0.39052081  0.51947111     0.32800
C1665       C  0.95393635  0.33865300  0.47743737     0.01400
F1666       F  0.93453043  0.38230895  0.45444053    -0.12900
F1667       F  0.99395584  0.39287178  0.53987809    -0.13500
C1668       C  0.92918462  0.33018032  0.47293235     0.16300
C1669       C  0.92523331  0.30757550  0.46037497     0.25700
C1670       C  0.94603192  0.29328619  0.45148616    -0.40600
C1671       C  0.97088643  0.30170381  0.45648155     0.32700
C1672       C  0.97476338  0.32410689  0.46950668     0.14400
F1673       F  0.90879907  0.34399165  0.48052781    -0.12900
F1674       F  0.99146850  0.28898563  0.44767460    -0.13400
F1675       F  0.90099902  0.29967967  0.45700723    -0.15700
F1676       F  0.99886770  0.33224190  0.47324737    -0.14300
F1677       F  0.98201711  0.34636611  0.52298963    -0.14300
F1678       F  0.94429118  0.42832476  0.47197888    -0.15700
C1679       C  0.96720339  0.63651966  0.50238115     0.14400
C1680       C  0.94659034  0.63945028  0.51894174     0.01300
C1681       C  0.93189080  0.61846925  0.52459862     0.16300
C1682       C  0.93941253  0.59461954  0.51642170     0.25700
C1683       C  0.96178197  0.59122737  0.50226140    -0.40600
C1684       C  0.97466508  0.61259761  0.49396975     0.32800
C1685       C  0.94239360  0.66327979  0.53307542     0.01400
F1686       F  0.91108013  0.62092465  0.53945605    -0.12900
F1687       F  0.99597130  0.61022621  0.47984813    -0.13500
C1688       C  0.93698288  0.68591032  0.52068794     0.16300
C1689       C  0.93261082  0.70793444  0.53464046     0.25700
C1690       C  0.93354848  0.70767587  0.56121142    -0.40600
C1691       C  0.93960572  0.68515189  0.57346910     0.32700
C1692       C  0.94401222  0.66326805  0.55958293     0.14400
F1693       F  0.93515456  0.68653402  0.49515980    -0.12900
F1694       F  0.94155264  0.68438414  0.59899921    -0.13400
F1695       F  0.92651158  0.72930373  0.52222879    -0.15700
F1696       F  0.95016534  0.64196202  0.57209118    -0.14300
F1697       F  0.98149301  0.65649901  0.49617298    -0.14300
F1698       F  0.92566753  0.57463119  0.52374020    -0.15700
C1699       C  0.09051867  0.66603316  0.46861859     0.14400
C1700       C  0.07299394  0.64905961  0.45827103     0.01300
C1701       C  0.05844611  0.65632735  0.43708812     0.16300
C1702       C  0.06127103  0.68013152  0.42660284     0.25700
C1703       C  0.07859379  0.69709344  0.43714992    -0.40600
C1704       C  0.09332150  0.68980414  0.45810134     0.32800
C1705       C  0.06877020  0.62439642  0.47034859     0.01400
F1706       F  0.04118004  0.64050147  0.42680961    -0.12900
F1707       F  0.11070345  0.70565431  0.46813192    -0.13500
C1708       C  0.06040581  0.62333475  0.49539209     0.16300
C1709       C  0.05322646  0.60059113  0.50597437     0.25700
C1710       C  0.05416120  0.57820541  0.49167956    -0.40600
C1711       C  0.06452988  0.57910280  0.46725488     0.32700
C1712       C  0.07155981  0.60196306  0.45665381     0.14400
F1713       F  0.05758597  0.64464265  0.50915601    -0.12900
F1714       F  0.06663550  0.55806474  0.45303385    -0.13400
F1715       F  0.04394992  0.60089004  0.52979990    -0.15700
F1716       F  0.08046811  0.60226269  0.43270171    -0.14300
F1717       F  0.10523531  0.65940205  0.48867074    -0.14300
F1718       F  0.04737411  0.68653067  0.40591602    -0.15700
C1719       C  0.51011369  0.02902284  0.63678954     0.14400
C1720       C  0.49614173  0.05103603  0.64159738     0.01300
C1721       C  0.49372047  0.06876326  0.62231259     0.16300
C1722       C  0.50303412  0.06365147  0.59800492     0.25700
C1723       C  0.51546321  0.04070239  0.59240058    -0.40600
C1724       C  0.51974566  0.02392454  0.61251782     0.32800
C1725       C  0.48078641  0.05389193  0.66505292     0.01400
F1726       F  0.48110374  0.09060388  0.62677611    -0.12900
F1727       F  0.53132076  0.00155964  0.60827870    -0.13500
C1728       C  0.49199212  0.05917147  0.68866706     0.16300
C1729       C  0.47679853  0.06203778  0.71027131     0.25700
C1730       C  0.45018561  0.05964189  0.70860731    -0.40600
C1731       C  0.43911168  0.05423175  0.68501935     0.32700
C1732       C  0.45422709  0.05139288  0.66354667     0.14400
F1733       F  0.51750791  0.06215170  0.69070519    -0.12900
F1734       F  0.41357272  0.05133694  0.68282775    -0.13400
F1735       F  0.48795528  0.06797240  0.73266162    -0.15700
F1736       F  0.44290180  0.04597371  0.64112455    -0.14300
F1737       F  0.51288120  0.01164152  0.65517070    -0.14300
F1738       F  0.49859958  0.08072046  0.57962939    -0.15700
C1739       C  0.49198704  0.95723044  0.61810169     0.14400
C1740       C  0.51046912  0.93825455  0.62055050     0.01300
C1741       C  0.52082616  0.92756675  0.59852246     0.16300
C1742       C  0.51473099  0.93734151  0.57470414     0.25700
C1743       C  0.49829545  0.95819316  0.57251832    -0.40600
C1744       C  0.48588178  0.96701180  0.59439430     0.32800
C1745       C  0.52095782  0.93167435  0.64590373     0.01400
F1746       F  0.53793797  0.90848076  0.60020887    -0.12900
F1747       F  0.46984324  0.98700316  0.59339416    -0.13500
C1748       C  0.50511441  0.92357817  0.66545846     0.16300
C1749       C  0.51524184  0.91850480  0.68953609     0.25700
C1750       C  0.54139175  0.92131108  0.69443479    -0.40600
C1751       C  0.55718945  0.92925221  0.67484065     0.32700
C1752       C  0.54707386  0.93459385  0.65094289     0.14400
F1753       F  0.47991540  0.92020224  0.66110581    -0.12900
F1754       F  0.58245876  0.93231011  0.67902189    -0.13400
F1755       F  0.49963232  0.91028856  0.70790516    -0.15700
F1756       F  0.56274725  0.94330138  0.63283638    -0.14300
F1757       F  0.48157551  0.96805664  0.63885618    -0.14300
F1758       F  0.52632571  0.92750804  0.55405955    -0.15700
C1759       C  0.33700206  0.04275633  0.45391127     0.14400
C1760       C  0.34850485  0.06265629  0.46690320     0.01300
C1761       C  0.33464412  0.08475549  0.47110588     0.16300
C1762       C  0.30995647  0.08743357  0.46139769     0.25700
C1763       C  0.29868073  0.06796482  0.44743283    -0.40600
C1764       C  0.31218461  0.04533785  0.44432092     0.32800
C1765       C  0.37564154  0.06118112  0.47414413     0.01400
F1766       F  0.34550445  0.10413290  0.48364400    -0.12900
F1767       F  0.30199863  0.02638269  0.43061356    -0.13500
C1768       C  0.39431467  0.06702891  0.45642097     0.16300
C1769       C  0.42008296  0.06413176  0.46240554     0.25700
C1770       C  0.42760776  0.05551375  0.48633143    -0.40600
C1771       C  0.40882172  0.05102343  0.50457833     0.32700
C1772       C  0.38302351  0.05369057  0.49843065     0.14400
F1773       F  0.38751973  0.07490398  0.43302891    -0.12900
F1774       F  0.41526123  0.04242119  0.52781721    -0.13400
F1775       F  0.43768447  0.06896071  0.44452452    -0.15700
F1776       F  0.36524272  0.04807043  0.51587029    -0.14300
F1777       F  0.35024648  0.02125355  0.44962743    -0.14300
F1778       F  0.29732648  0.10941004  0.46484487    -0.15700
C1779       C  0.39159622  0.97926035  0.55790158     0.14400
C1780       C  0.37507322  0.96520102  0.54280500     0.01300
C1781       C  0.38295190  0.95702226  0.51883420     0.16300
C1782       C  0.40655020  0.96400978  0.50949471     0.25700
C1783       C  0.42236443  0.97954874  0.52392222    -0.40600
C1784       C  0.41491516  0.98649987  0.54860274     0.32800
C1785       C  0.34922974  0.96011172  0.55175117     0.01400
F1786       F  0.36729025  0.94326317  0.50397701    -0.12900
F1787       F  0.42943628  0.00148377  0.56350027    -0.13500
C1788       C  0.33288744  0.97999546  0.55830180     0.16300
C1789       C  0.30871014  0.97529092  0.56778831     0.25700
C1790       C  0.30038500  0.95056916  0.57071016    -0.40600
C1791       C  0.31660666  0.93072964  0.56320499     0.32700
C1792       C  0.34089216  0.93549354  0.55406866     0.14400
F1793       F  0.34047259  0.00401647  0.55565301    -0.12900
F1794       F  0.30899861  0.90664567  0.56474057    -0.13400
F1795       F  0.29391753  0.99492330  0.57505662    -0.15700
F1796       F  0.35657721  0.91604786  0.54813104    -0.14300
F1797       F  0.38487423  0.98662322  0.58150978    -0.14300
F1798       F  0.41350485  0.95622497  0.48610821    -0.15700
C1799       C  0.55466995  0.03394548  0.31445996     0.14400
C1800       C  0.54356074  0.05386213  0.32805343     0.01300
C1801       C  0.54385198  0.07794807  0.31763260     0.16300
C1802       C  0.55543214  0.08211438  0.29431923     0.25700
C1803       C  0.56696893  0.06226593  0.28092623    -0.40600
C1804       C  0.56621094  0.03809090  0.29112604     0.32800
C1805       C  0.53269211  0.04954631  0.35351230     0.01400
F1806       F  0.53292416  0.09746744  0.33007959    -0.12900
F1807       F  0.57781511  0.01867605  0.27911747    -0.13500
C1808       C  0.54300318  0.06151022  0.37486319     0.16300
C1809       C  0.53463059  0.05554780  0.39911258     0.25700
C1810       C  0.51564086  0.03749702  0.40262857    -0.40600
C1811       C  0.50437796  0.02652840  0.38103912     0.32700
C1812       C  0.51292305  0.03243357  0.35679759     0.14400
F1813       F  0.56216754  0.07808409  0.37234399    -0.12900
F1814       F  0.48606242  0.00902977  0.38331526    -0.13400
F1815       F  0.54572401  0.06696066  0.41923565    -0.15700
F1816       F  0.50224427  0.02101419  0.33645541    -0.14300
F1817       F  0.55533366  0.01060737  0.32433565    -0.14300
F1818       F  0.55543062  0.10560848  0.28481548    -0.15700
C1819       C  0.46364309  0.90860730  0.32827917     0.14400
C1820       C  0.46820150  0.93225748  0.33885534     0.01300
C1821       C  0.46305827  0.95362933  0.32435779     0.16300
C1822       C  0.45288680  0.95152596  0.29996105     0.25700
C1823       C  0.44792083  0.92789900  0.28931144    -0.40600
C1824       C  0.45386349  0.90640513  0.30365642     0.32800
C1825       C  0.47786445  0.93513966  0.36513392     0.01400
F1826       F  0.46703359  0.97669959  0.33427506    -0.12900
F1827       F  0.45025279  0.88321211  0.29384301    -0.13500
C1828       C  0.50256629  0.94378561  0.36952322     0.16300
C1829       C  0.51042178  0.95092272  0.39381229     0.25700
C1830       C  0.49353381  0.94998402  0.41442111    -0.40600
C1831       C  0.46926367  0.93944587  0.41013109     0.32700
C1832       C  0.46160302  0.93208820  0.38573686     0.14400
F1833       F  0.51874936  0.94651120  0.34993232    -0.12900
F1834       F  0.45224964  0.93764193  0.42913834    -0.13400
F1835       F  0.53408282  0.96043749  0.39663399    -0.15700
F1836       F  0.43763670  0.92357733  0.38192603    -0.14300
F1837       F  0.46864590  0.88765647  0.34180737    -0.14300
F1838       F  0.44667343  0.97271032  0.28729501    -0.15700
C1839       C  0.66971533  0.08698843  0.52829437     0.14400
C1840       C  0.65558417  0.06540878  0.53262658     0.01300
C1841       C  0.66721655  0.04494304  0.54479453     0.16300
C1842       C  0.69247694  0.04638802  0.55323312     0.25700
C1843       C  0.70631246  0.06840061  0.54981714    -0.40600
C1844       C  0.69483278  0.08852817  0.53691520     0.32800
C1845       C  0.62876913  0.06413984  0.52426178     0.01400
F1846       F  0.65394346  0.02374138  0.54884583    -0.12900
F1847       F  0.70773936  0.11005185  0.53348890    -0.13500
C1848       C  0.62279329  0.06361559  0.49844961     0.16300
C1849       C  0.59795777  0.05890747  0.49043175     0.25700
C1850       C  0.57872822  0.05457265  0.50814224    -0.40600
C1851       C  0.58421552  0.05795226  0.53394696     0.32700
C1852       C  0.60915794  0.06232134  0.54195487     0.14400
F1853       F  0.64137927  0.06573672  0.48101106    -0.12900
F1854       F  0.56611940  0.05459973  0.55160806    -0.13400
F1855       F  0.59313294  0.05642601  0.46534746    -0.15700
F1856       F  0.61437673  0.06355251  0.56703605    -0.14300
F1857       F  0.65879872  0.10693470  0.51661132    -0.14300
F1858       F  0.70293834  0.02687835  0.56599125    -0.15700
C1859       C  0.61862737  0.93068695  0.48363324     0.14400
C1860       C  0.63983265  0.94575458  0.48868238     0.01300
C1861       C  0.63647810  0.96791674  0.50268309     0.16300
C1862       C  0.61204313  0.97603026  0.50939732     0.25700
C1863       C  0.59059662  0.96222889  0.50187924    -0.40600
C1864       C  0.59420021  0.93891877  0.49004759     0.32800
C1865       C  0.66452928  0.94012143  0.47639651     0.01400
F1866       F  0.65657232  0.98285374  0.50785045    -0.12900
F1867       F  0.57392100  0.92475740  0.48342811    -0.13500
C1868       C  0.66561248  0.93853563  0.44995055     0.16300
C1869       C  0.68868773  0.93388209  0.43784223     0.25700
C1870       C  0.71130459  0.93086830  0.45188264    -0.40600
C1871       C  0.71031154  0.93271802  0.47836127     0.32700
C1872       C  0.68709154  0.93728865  0.49052340     0.14400
F1873       F  0.64430006  0.94208959  0.43574690    -0.12900
F1874       F  0.73167961  0.92931878  0.49247565    -0.13400
F1875       F  0.68899095  0.93278578  0.41225939    -0.15700
F1876       F  0.68653662  0.93844584  0.51608920    -0.14300
F1877       F  0.62146207  0.90863636  0.47114302    -0.14300
F1878       F  0.60927717  0.99861009  0.52091171    -0.15700
loop_ 
_geom_bond_atom_site_label_1 
_geom_bond_atom_site_label_2 
_geom_bond_distance 
_geom_bond_site_symmetry_2 
_ccdc_geom_bond_type 
O1            C9   1.263       .  A
O1          Co21   1.977   1_565  S
O2           C10   1.244   1_545  A
O2          Co22   1.894       .  S
O3           C11   1.249       .  A
O3          Co23   1.976   1_565  S
O4           C12   1.264       .  A
O4          Co24   1.967   1_565  S
O5           C11   1.263       .  A
O5          Co22   2.030   1_565  S
O6           C12   1.278       .  A
O6          Co21   2.039   1_565  S
O7           C10   1.267       .  A
O7          Co24   2.011   1_565  S
O8            C9   1.268       .  A
O8          Co23   2.007   1_565  S
C9         C1863   1.477       .  S
C10        C1783   1.470       .  S
C11        C1743   1.489       .  S
C12        C1830   1.505       .  S
O13          C26   1.255       .  A
O13         Co21   1.968       .  S
O14          C27   1.279       .  A
O14         Co22   2.028       .  S
O15          C28   1.259       .  A
O15         Co23   1.983       .  S
O16          C29   1.260       .  A
O16         Co24   1.983       .  S
O17          C29   1.257       .  A
O17         Co22   1.961       .  S
O18          C28   1.264       .  A
O18         Co21   1.986       .  S
O19          C26   1.266       .  A
O19         Co24   2.029       .  S
O20          C27   1.280       .  A
O20         Co23   2.006       .  S
Co21         O25   2.049       .  S
Co22         O25   2.119       .  S
Co23         O25   2.012       .  S
Co24         O25   2.109       .  S
C26        C1810   1.495       .  S
C27        C1723   1.509       .  S
C28        C1850   1.474       .  S
C29        C1770   1.476       .  S
O30          C38   1.264       .  A
O30         Co50   1.984       .  S
O31          C39   1.274       .  A
O31         Co51   2.028   1_455  S
O32          C40   1.264       .  A
O32         Co52   1.967       .  S
O33          C41   1.290       .  A
O33         Co53   2.031       .  S
O34          C40   1.272       .  A
O34         Co51   2.002   1_455  S
O35          C41   1.282       .  A
O35         Co50   1.920       .  S
O36          C39   1.241       .  A
O36         Co53   1.959       .  S
O37          C38   1.266       .  A
O37         Co52   2.002       .  S
C38        C1710   1.496       .  S
C39        C1643   1.499       .  S
C40        C1603   1.467       .  S
C41        C1570   1.465       .  S
O42          C55   1.266       .  A
O42         Co50   2.016   1_655  S
O43          C56   1.267       .  A
O43         Co51   1.984       .  S
O44          C57   1.271       .  A
O44         Co52   1.980   1_655  S
O45          C58   1.293       .  A
O45         Co53   2.048   1_655  S
O46          C58   1.273       .  A
O46         Co51   1.897       .  S
O47          C57   1.282       .  A
O47         Co50   2.037   1_655  S
O48          C55   1.240       .  A
O48         Co53   1.927   1_655  S
O49          C56   1.270       .  A
O49         Co52   2.007   1_655  S
Co50         O54   1.949       .  S
Co51         O54   1.958   1_655  S
Co52         O54   2.012       .  S
Co53         O54   2.081       .  S
C55        C1583   1.479       .  S
C56        C1623   1.495       .  S
C57        C1683   1.491       .  S
C58        C1663   1.469       .  S
O59          C67   1.278       .  A
O59         Co79   2.032       .  S
O60          C68   1.277       .  A
O60         Co80   2.032       .  S
O61          C69   1.292       .  A
O61         Co81   2.039   1_556  S
O62          C70   1.293       .  A
O62         Co82   2.043       .  S
O63          C69   1.281       .  A
O63         Co80   1.888       .  S
O64          C70   1.278       .  A
O64         Co79   1.879       .  S
O65          C68   1.240       .  A
O65         Co82   1.936       .  S
O66          C67   1.241       .  A
O66         Co81   1.936   1_556  S
C67        C1543   1.492       .  S
C68        C1463   1.493       .  S
C69        C1503   1.463       .  S
C70        C1430   1.460       .  S
O71          C84   1.270       .  A
O71         Co79   2.018   1_554  S
O72          C85   1.270       .  A
O72         Co80   2.015   1_554  S
O73          C86   1.273       .  A
O73         Co81   1.986       .  S
O74          C87   1.273       .  A
O74         Co82   1.982   1_554  S
O75          C87   1.274       .  A
O75         Co80   2.009   1_554  S
O76          C86   1.272       .  A
O76         Co79   2.004   1_554  S
O77          C84   1.242       .  A
O77         Co82   1.901   1_554  S
O78          C85   1.244       .  A
O78         Co81   1.908       .  S
Co79         O83   1.986   1_556  S
Co80         O83   1.990   1_556  S
Co81         O83   2.014       .  S
Co82         O83   2.017   1_556  S
C84        C1410   1.464       .  S
C85        C1490   1.461       .  S
C86        C1523   1.488       .  S
C87        C1450   1.490       .  S
C88        C1363   1.486       .  S
C88          C89   1.409       .  A
C88          C93   1.402       .  A
C89          C90   1.412       .  A
C89          H94   1.085       .  S
C90        C1750   1.490       .  S
C90          C91   1.407       .  A
C91          C92   1.406       .  A
C91          H95   1.093       .  S
C92        C1383   1.490       .  S
C92          C93   1.404       .  A
C93          H96   1.084       .  S
C97        C1323   1.498       .  S
C97          N98   1.360       .  A
C97         N102   1.362       .  A
N98          C99   1.359       .  A
C99        C1350   1.491       .  S
C99         N100   1.359       .  A
N100        C101   1.360       .  A
C101       C1390   1.493       .  S
C101        N102   1.361       .  A
C103       C1690   1.489       .  S
C103        C104   1.407       .  A
C103        C108   1.407       .  A
C104        C105   1.405       .  A
C104        H109   1.088       .  S
C105       C1343   1.489       .  S
C105        C106   1.404       .  A
C106        C107   1.405       .  A
C106        H110   1.075       .  S
C107       C1310   1.486       .  S
C107        C108   1.407       .  A
C108        H111   1.090       .  S
C112       C1290   1.490       .  S
C112        C113   1.413       .  A
C112        C117   1.404       .  A
C113        C114   1.413       .  A
C113        H118   1.087       .  S
C114       C1470   1.493       .  S
C114        C115   1.407       .  A
C115        C116   1.403       .  A
C115        H119   1.079       .  S
C116       C1330   1.480       .  S
C116        C117   1.400       .  A
C117        H120   1.095       .  S
C121       C1243   1.472       .  S
C121        N122   1.355       .  A
C121        N126   1.357       .  A
N122        C123   1.358       .  A
C123       C1230   1.486       .  S
C123        N124   1.362       .  A
N124        C125   1.362       .  A
C125       C1263   1.484       .  S
C125        N126   1.359       .  A
C127       C1550   1.486       .  S
C127        C128   1.411       .  A
C127        C132   1.401       .  A
C128        C129   1.415       .  A
C128        H133   1.086       .  S
C129       C1210   1.502       .  S
C129        C130   1.409       .  A
C130        C131   1.408       .  A
C130        H134   1.078       .  S
C131       C1270   1.496       .  S
C131        C132   1.404       .  A
C132        H135   1.089       .  S
C136       C1190   1.478       .  S
C136        C137   1.400       .  A
C136        C141   1.406       .  A
C137        C138   1.404       .  A
C137        H142   1.090       .  S
C138       C1250   1.487       .  S
C138        C139   1.406       .  A
C139        C140   1.407       .  A
C139        H143   1.090       .  S
C140       C1730   1.490       .  S
C140        C141   1.409       .  A
C141        H144   1.085       .  S
C145       C1170   1.495       .  S
C145        C146   1.406       .  A
C145        C150   1.413       .  A
C146        C147   1.405       .  A
C146        H151   1.093       .  S
C147       C1223   1.485       .  S
C147        C148   1.404       .  A
C148        C149   1.403       .  A
C148        H152   1.088       .  S
C149       C1650   1.483       .  S
C149        C150   1.409       .  A
C150        H153   1.077       .  S
O154        C162   1.270       .  A
O154       Co174   1.975   1_565  S
O155        C163   1.260   1_565  A
O155       Co175   1.977       .  S
O156        C164   1.270       .  A
O156       Co176   1.996       .  S
O157        C165   1.295   1_554  A
O157       Co177   2.100       .  S
O158        C164   1.265       .  A
O158       Co175   1.974   1_556  S
O159        C165   1.267       .  A
O159       Co174   1.900       .  S
O160        C163   1.262       .  A
O160       Co177   2.008       .  S
O161        C162   1.278       .  A
O161       Co176   2.030       .  S
C162       C1183   1.495       .  S
C163       C1110   1.494   1_545  S
C164       C1070   1.470       .  S
C165       C1130   1.483       .  S
O166        C179   1.297   1_556  A
O166       Co174   2.101       .  S
O167        C180   1.271       .  A
O167       Co175   1.998       .  S
O168        C181   1.265   1_565  A
O168       Co176   1.981       .  S
O169        C182   1.271   1_545  A
O169       Co177   1.974       .  S
O170        C182   1.280       .  A
O170       Co175   2.030       .  S
O171        C181   1.266       .  A
O171       Co174   2.010       .  S
O172        C179   1.265       .  A
O172       Co177   1.895       .  S
O173        C180   1.271   1_556  A
O173       Co176   1.990       .  S
Co174       O178   2.016   1_545  S
Co175       O178   2.033   1_554  S
Co176       O178   2.051       .  S
Co177       O178   2.016   1_544  S
C179       C1150   1.488   1_554  S
C180       C1050   1.480       .  S
C181       C1370   1.500   1_545  S
C182       C1083   1.496       .  S
C183       C1023   1.465       .  S
C183        N184   1.354       .  A
C183        N188   1.356       .  A
N184        C185   1.355       .  A
C185        C983   1.469       .  S
C185        N186   1.357       .  A
N186        C187   1.360       .  A
C187       C1003   1.491       .  S
C187        N188   1.360       .  A
C189       C1510   1.471       .  S
C189        C190   1.405       .  A
C189        C194   1.403       .  A
C190        C191   1.403       .  A
C190        H195   1.085       .  S
C191       C1063   1.476       .  S
C191        C192   1.398       .  A
C192        C193   1.398       .  A
C192        H196   1.086       .  S
C193       C1030   1.479       .  S
C193        C194   1.401       .  A
C194        H197   1.088       .  S
C198        C963   1.483       .  S
C198        C199   1.401       .  A
C198        C203   1.410       .  A
C199        C200   1.397       .  A
C199        H204   1.087       .  S
C200       C1010   1.475       .  S
C200        C201   1.399       .  A
C201        C202   1.404       .  A
C201        H205   1.086       .  S
C202       C1790   1.488       .  S
C202        C203   1.412       .  A
C203        H206   1.079       .  S
C207        C943   1.480       .  S
C207        C208   1.401       .  A
C207        C212   1.407       .  A
C208        C209   1.399       .  A
C208        H213   1.080       .  S
C209        C990   1.482       .  S
C209        C210   1.402       .  A
C210        C211   1.407       .  A
C210        H214   1.078       .  S
C211       C1610   1.487       .  S
C211        C212   1.406       .  A
C212        H215   1.088       .  S
C216        C910   1.485       .  S
C216        N217   1.356       .  A
C216        N221   1.358       .  A
N217        C218   1.356       .  A
C218        C883   1.473       .  S
C218        N219   1.358       .  A
N219        C220   1.360       .  A
C220        C923   1.469       .  S
C220        N221   1.357       .  A
C222       C1670   1.486       .  S
C222        C223   1.406       .  A
C222        C227   1.405       .  A
C223        C224   1.405       .  A
C223        H228   1.084       .  S
C224        C863   1.484       .  S
C224        C225   1.402       .  A
C225        C226   1.399       .  A
C225        H229   1.090       .  S
C226        C930   1.480       .  S
C226        C227   1.401       .  A
C227        H230   1.084       .  S
C231        C850   1.482       .  S
C231        C232   1.405       .  A
C231        C236   1.405       .  A
C232        C233   1.407       .  A
C232        H237   1.090       .  S
C233       C1443   1.485       .  S
C233        C234   1.405       .  A
C234        C235   1.398       .  A
C234        H238   1.088       .  S
C235        C903   1.472       .  S
C235        C236   1.402       .  A
C236        H239   1.067       .  S
C240       C1803   1.490       .  S
C240        C241   1.408       .  A
C240        C245   1.404       .  A
C241        C242   1.410       .  A
C241        H246   1.088       .  S
C242       C1090   1.491       .  S
C242        C243   1.406       .  A
C243        C244   1.405       .  A
C243        H247   1.079       .  S
C244        C890   1.489       .  S
C244        C245   1.405       .  A
C245        H248   1.081       .  S
O249        C257   1.261   1_556  A
O249       Co269   1.974       .  S
O250        C258   1.273   1_554  A
O250       Co270   1.976       .  S
O251        C259   1.292   1_655  A
O251       Co271   2.088       .  S
O252        C260   1.269       .  A
O252       Co272   1.991       .  S
O253        C259   1.271       .  A
O253       Co270   1.923       .  S
O254        C260   1.268       .  A
O254       Co269   1.984   1_455  S
O255        C258   1.279       .  A
O255       Co272   2.024       .  S
O256        C257   1.266       .  A
O256       Co271   2.015       .  S
C257       C1283   1.497       .  S
C258        C830   1.490       .  S
C259        C790   1.498       .  S
C260        C950   1.472       .  S
O261        C274   1.271       .  A
O261       Co269   2.000       .  S
O262        C275   1.295   1_455  A
O262       Co270   2.099       .  S
O263        C276   1.271   1_554  A
O263       Co271   1.967       .  S
O264        C277   1.265   1_556  A
O264       Co272   1.978       .  S
O265        C277   1.268       .  A
O265       Co270   2.015       .  S
O266        C276   1.280       .  A
O266       Co269   2.030       .  S
O267        C274   1.273   1_455  A
O267       Co272   1.992       .  S
O268        C275   1.269       .  A
O268       Co271   1.909       .  S
Co269       O273   2.033   1_655  S
Co270       O273   2.021   1_554  S
Co271       O273   2.017   1_654  S
Co272       O273   2.036       .  S
C274        C770   1.483       .  S
C275        C803   1.490       .  S
C276        C843   1.491       .  S
C277       C1203   1.501       .  S
C278        C723   1.499       .  S
C278        C279   1.410       .  A
C278        C283   1.413       .  A
C279        C280   1.407       .  A
C279        H284   1.086       .  S
C280        C750   1.495       .  S
C280        C281   1.404       .  A
C281        C282   1.404       .  A
C281        H285   1.073       .  S
C282       C1763   1.486       .  S
C282        C283   1.408       .  A
C283        H286   1.090       .  S
C287        C743   1.484       .  S
C287        N288   1.361       .  A
C287        N292   1.359       .  A
N288        C289   1.363       .  A
C289        C710   1.500       .  S
C289        N290   1.360       .  A
N290        C291   1.359       .  A
C291        C683   1.497       .  S
C291        N292   1.359       .  A
C293       C1563   1.499       .  S
C293        C294   1.413       .  A
C293        C298   1.410       .  A
C294        C295   1.409       .  A
C294        H299   1.087       .  S
C295        C810   1.490       .  S
C295        C296   1.404       .  A
C296        C297   1.401       .  A
C296        H300   1.087       .  S
C297        C703   1.484       .  S
C297        C298   1.403       .  A
C298        H301   1.079       .  S
C302       C1403   1.484       .  S
C302        C303   1.404       .  A
C302        C307   1.406       .  A
C303        C304   1.402       .  A
C303        H308   1.084       .  S
C304        C690   1.485       .  S
C304        C305   1.402       .  A
C305        C306   1.405       .  A
C305        H309   1.090       .  S
C306       C1123   1.491       .  S
C306        C307   1.408       .  A
C307        H310   1.082       .  S
C311        C670   1.480       .  S
C311        N312   1.358       .  A
C311        N316   1.354       .  A
N312        C313   1.360       .  A
C313        C643   1.475       .  S
C313        N314   1.361       .  A
N314        C315   1.361       .  A
C315        C623   1.486       .  S
C315        N316   1.355       .  A
C317       C1630   1.485       .  S
C317        C318   1.409       .  A
C317        C322   1.404       .  A
C318        C319   1.411       .  A
C318        H323   1.096       .  S
C319        C763   1.491       .  S
C319        C320   1.405       .  A
C320        C321   1.400       .  A
C320        H324   1.088       .  S
C321        C663   1.481       .  S
C321        C322   1.402       .  A
C322        H325   1.073       .  S
C326       C1143   1.475       .  S
C326        C327   1.402       .  A
C326        C331   1.402       .  A
C327        C328   1.404       .  A
C327        H332   1.081       .  S
C328       C1423   1.473       .  S
C328        C329   1.403       .  A
C329        C330   1.404       .  A
C329        H333   1.087       .  S
C330        C650   1.487       .  S
C330        C331   1.404       .  A
C331        H334   1.086       .  S
C335       C1843   1.481       .  S
C335        C336   1.400       .  A
C335        C340   1.410       .  A
C336        C337   1.398       .  A
C336        H341   1.080       .  S
C337        C630   1.477       .  S
C337        C338   1.398       .  A
C338        C339   1.404       .  A
C338        H342   1.086       .  S
C339        C610   1.488       .  S
C339        C340   1.414       .  A
C340        H343   1.083       .  S
C344        C583   1.493       .  S
C344        N345   1.358       .  A
C344        N349   1.361       .  A
N345        C346   1.355       .  A
C346        C563   1.476       .  S
C346        N347   1.358       .  A
N347        C348   1.359       .  A
C348        C543   1.486       .  S
C348        N349   1.361       .  A
C350       C1870   1.487       .  S
C350        C351   1.408       .  A
C350        C355   1.410       .  A
C351        C352   1.401       .  A
C351        H356   1.076       .  S
C352        C590   1.475       .  S
C352        C353   1.398       .  A
C353        C354   1.403       .  A
C353        H357   1.078       .  S
C354        C523   1.481       .  S
C354        C355   1.407       .  A
C355        H358   1.093       .  S
C359        C783   1.502       .  S
C359        C360   1.408       .  A
C359        C364   1.415       .  A
C360        C361   1.402       .  A
C360        H365   1.088       .  S
C361        C570   1.487       .  S
C361        C362   1.399       .  A
C362        C363   1.404       .  A
C362        H366   1.083       .  S
C363       C1590   1.497       .  S
C363        C364   1.414       .  A
C364        H367   1.082       .  S
C368       C1043   1.485       .  S
C368        C369   1.403       .  A
C368        C373   1.408       .  A
C369        C370   1.403       .  A
C369        H374   1.091       .  S
C370        C550   1.483       .  S
C370        C371   1.402       .  A
C371        C372   1.403       .  A
C371        H375   1.090       .  S
C372       C1483   1.480       .  S
C372        C373   1.407       .  A
C373        H376   1.077       .  S
C377        C490   1.481       .  S
C377        N378   1.356       .  A
C377        N382   1.358       .  A
N378        C379   1.355       .  A
C379        C503   1.469       .  S
C379        N380   1.357       .  A
N380        C381   1.359       .  A
C381        C463   1.491       .  S
C381        N382   1.359       .  A
C383       C1823   1.496       .  S
C383        C384   1.407       .  A
C383        C388   1.413       .  A
C384        C385   1.404       .  A
C384        H389   1.076       .  S
C385        C510   1.485       .  S
C385        C386   1.401       .  A
C386        C387   1.403       .  A
C386        H390   1.083       .  S
C387       C1103   1.488       .  S
C387        C388   1.410       .  A
C388        H391   1.089       .  S
C392        C450   1.497       .  S
C392        C393   1.406       .  A
C392        C397   1.414       .  A
C393        C394   1.399       .  A
C393        H398   1.079       .  S
C394        C483   1.479       .  S
C394        C395   1.400       .  A
C395        C396   1.401       .  A
C395        H399   1.081       .  S
C396       C1703   1.481       .  S
C396        C397   1.411       .  A
C397        H400   1.092       .  S
C401       C1530   1.482       .  S
C401        C402   1.400       .  A
C401        C406   1.407       .  A
C402        C403   1.400       .  A
C402        H407   1.087       .  S
C403        C470   1.480       .  S
C403        C404   1.403       .  A
C404        C405   1.405       .  A
C404        H408   1.086       .  S
C405        C823   1.484       .  S
C405        C406   1.409       .  A
C406        H409   1.088       .  S
O410        C418   1.270       .  A
O410       Co430   1.997       .  S
O411        C419   1.293   1_455  A
O411       Co431   2.095       .  S
O412        C420   1.260   1_565  A
O412       Co432   1.977       .  S
O413        C421   1.272   1_545  A
O413       Co433   1.976       .  S
O414        C420   1.261       .  A
O414       Co431   1.998       .  S
O415        C421   1.280       .  A
O415       Co430   2.030       .  S
O416        C419   1.270       .  A
O416       Co433   1.918       .  S
O417        C418   1.268   1_455  A
O417       Co432   1.981       .  S
C418       C1303   1.474       .  S
C419       C1163   1.494   1_655  S
C420        C970   1.488       .  S
C421        C603   1.496   1_565  S
O422        C435   1.262   1_565  A
O422       Co430   1.972       .  S
O423        C436   1.269   1_545  A
O423       Co431   1.969       .  S
O424        C437   1.270       .  A
O424       Co432   1.998       .  S
O425        C438   1.295   1_655  A
O425       Co433   2.098       .  S
O426        C438   1.264       .  A
O426       Co431   1.890       .  S
O427        C437   1.271       .  A
O427       Co430   1.994   1_455  S
O428        C435   1.266       .  A
O428       Co433   2.010       .  S
O429        C436   1.282       .  A
O429       Co432   2.044       .  S
Co430       O434   2.038   1_655  S
Co431       O434   2.010   1_545  S
Co432       O434   2.038       .  S
Co433       O434   2.030   1_645  S
C435        C530   1.495       .  S
C436        C730   1.500       .  S
C437        C443   1.491       .  S
C438        C870   1.479       .  S
C439        C440   1.404       .  A
C439        C444   1.396       .  A
C439        F457   1.358       .  S
C440        C445   1.493       .  S
C440        C441   1.410       .  A
C441        C442   1.409       .  A
C441        F446   1.357       .  S
C442        C443   1.410       .  A
C442        F458   1.357   1_455  S
C443        C444   1.411       .  A
C444        F447   1.358       .  S
C445        C448   1.410       .  A
C445        C452   1.404       .  A
C448        C449   1.402       .  A
C448        F453   1.358       .  S
C449        C450   1.408       .  A
C449        F455   1.357       .  S
C450        C451   1.414       .  A
C451        C452   1.402       .  A
C451        F454   1.358       .  S
C452        F456   1.358       .  S
C459        C460   1.401       .  A
C459        C464   1.399       .  A
C459        F477   1.358       .  S
C460        C465   1.474       .  S
C460        C461   1.400       .  A
C461        C462   1.396       .  A
C461        F466   1.358       .  S
C462        C463   1.414       .  A
C462        F478   1.357       .  S
C463        C464   1.415       .  A
C464        F467   1.358       .  S
C465        C468   1.402       .  A
C465        C472   1.404       .  A
C468        C469   1.396       .  A
C468        F473   1.358       .  S
C469        C470   1.408       .  A
C469        F475   1.358       .  S
C470        C471   1.407       .  A
C471        C472   1.399       .  A
C471        F474   1.358       .  S
C472        F476   1.358       .  S
C479        C480   1.405       .  A
C479        C484   1.399       .  A
C479        F497   1.358       .  S
C480        C485   1.475       .  S
C480        C481   1.403       .  A
C481        C482   1.395       .  A
C481        F486   1.358       .  S
C482        C483   1.407       .  A
C482        F498   1.358       .  S
C483        C484   1.407       .  A
C484        F487   1.358       .  S
C485        C488   1.402       .  A
C485        C492   1.403       .  A
C488        C489   1.397       .  A
C488        F493   1.358       .  S
C489        C490   1.410       .  A
C489        F495   1.358       .  S
C490        C491   1.410       .  A
C491        C492   1.397       .  A
C491        F494   1.358       .  S
C492        F496   1.358       .  S
C499        C500   1.406       .  A
C499        C504   1.396       .  A
C499        F517   1.358       .  S
C500        C505   1.478       .  S
C500        C501   1.406       .  A
C501        C502   1.398       .  A
C501        F506   1.358       .  S
C502        C503   1.405       .  A
C502        F518   1.358       .  S
C503        C504   1.403       .  A
C504        F507   1.358       .  S
C505        C508   1.404       .  A
C505        C512   1.405       .  A
C508        C509   1.397       .  A
C508        F513   1.358       .  S
C509        C510   1.409       .  A
C509        F515   1.358       .  S
C510        C511   1.409       .  A
C511        C512   1.398       .  A
C511        F514   1.358       .  S
C512        F516   1.358       .  S
C519        C520   1.406       .  A
C519        C524   1.398       .  A
C519        F537   1.358       .  S
C520        C525   1.487       .  S
C520        C521   1.408       .  A
C521        C522   1.404       .  A
C521        F526   1.357   1_565  S
C522        C523   1.406       .  A
C522        F538   1.358       .  S
C523        C524   1.405       .  A
C524        F527   1.358       .  S
C525        C528   1.405       .  A
C525        C532   1.402   1_565  A
C528        C529   1.403       .  A
C528        F533   1.358       .  S
C529        C530   1.412   1_565  A
C529        F535   1.358       .  S
C530        C531   1.415       .  A
C531        C532   1.401       .  A
C531        F534   1.358       .  S
C532        F536   1.357       .  S
C539        C540   1.403       .  A
C539        C544   1.400       .  A
C539        F557   1.358       .  S
C540        C545   1.477       .  S
C540        C541   1.402       .  A
C541        C542   1.400       .  A
C541        F546   1.358       .  S
C542        C543   1.411       .  A
C542        F558   1.358       .  S
C543        C544   1.410       .  A
C544        F547   1.357       .  S
C545        C548   1.403       .  A
C545        C552   1.404       .  A
C548        C549   1.398       .  A
C548        F553   1.358       .  S
C549        C550   1.407       .  A
C549        F555   1.358       .  S
C550        C551   1.409       .  A
C551        C552   1.401       .  A
C551        F554   1.358       .  S
C552        F556   1.358       .  S
C559        C560   1.408       .  A
C559        C564   1.397       .  A
C559        F577   1.358       .  S
C560        C565   1.487       .  S
C560        C561   1.408       .  A
C561        C562   1.401       .  A
C561        F566   1.358       .  S
C562        C563   1.407       .  A
C562        F578   1.358       .  S
C563        C564   1.404       .  A
C564        F567   1.358       .  S
C565        C568   1.407       .  A
C565        C572   1.407       .  A
C568        C569   1.397       .  A
C568        F573   1.358       .  S
C569        C570   1.407       .  A
C569        F575   1.358       .  S
C570        C571   1.409       .  A
C571        C572   1.400       .  A
C571        F574   1.358       .  S
C572        F576   1.358       .  S
C579        C580   1.402       .  A
C579        C584   1.398       .  A
C579        F597   1.358       .  S
C580        C585   1.480       .  S
C580        C581   1.403       .  A
C581        C582   1.398       .  A
C581        F586   1.358       .  S
C582        C583   1.413       .  A
C582        F598   1.357       .  S
C583        C584   1.416       .  A
C584        F587   1.358       .  S
C585        C588   1.406       .  A
C585        C592   1.407       .  A
C588        C589   1.397       .  A
C588        F593   1.358       .  S
C589        C590   1.404       .  A
C589        F595   1.358       .  S
C590        C591   1.404       .  A
C591        C592   1.400       .  A
C591        F594   1.358       .  S
C592        F596   1.358       .  S
C599        C600   1.406       .  A
C599        C604   1.404       .  A
C599        F617   1.358       .  S
C600        C605   1.487       .  S
C600        C601   1.402   1_545  A
C601        C602   1.399       .  A
C601        F606   1.358       .  S
C602        C603   1.415   1_565  A
C602        F618   1.358       .  S
C603        C604   1.413       .  A
C604        F607   1.358       .  S
C605        C608   1.408       .  A
C605        C612   1.404       .  A
C608        C609   1.402       .  A
C608        F613   1.357       .  S
C609        C610   1.406       .  A
C609        F615   1.358       .  S
C610        C611   1.411       .  A
C611        C612   1.402       .  A
C611        F614   1.358       .  S
C612        F616   1.358       .  S
C619        C620   1.406       .  A
C619        C624   1.399       .  A
C619        F637   1.358       .  S
C620        C625   1.480       .  S
C620        C621   1.403       .  A
C621        C622   1.394       .  A
C621        F626   1.359       .  S
C622        C623   1.413       .  A
C622        F638   1.357       .  S
C623        C624   1.410       .  A
C624        F627   1.357       .  S
C625        C628   1.407       .  A
C625        C632   1.406       .  A
C628        C629   1.395       .  A
C628        F633   1.358       .  S
C629        C630   1.405       .  A
C629        F635   1.358       .  S
C630        C631   1.406       .  A
C631        C632   1.398       .  A
C631        F634   1.358       .  S
C632        F636   1.358       .  S
C639        C640   1.408       .  A
C639        C644   1.399       .  A
C639        F657   1.358       .  S
C640        C645   1.489       .  S
C640        C641   1.410       .  A
C641        C642   1.400       .  A
C641        F646   1.358       .  S
C642        C643   1.404       .  A
C642        F658   1.358       .  S
C643        C644   1.404       .  A
C644        F647   1.358       .  S
C645        C648   1.409       .  A
C645        C652   1.407       .  A
C648        C649   1.400       .  A
C648        F653   1.358       .  S
C649        C650   1.408       .  A
C649        F655   1.358       .  S
C650        C651   1.409       .  A
C651        C652   1.399       .  A
C651        F654   1.358       .  S
C652        F656   1.358       .  S
C659        C660   1.403       .  A
C659        C664   1.398       .  A
C659        F677   1.358       .  S
C660        C665   1.474       .  S
C660        C661   1.403       .  A
C661        C662   1.398       .  A
C661        F666   1.358       .  S
C662        C663   1.408       .  A
C662        F678   1.358       .  S
C663        C664   1.407       .  A
C664        F667   1.358       .  S
C665        C668   1.401       .  A
C665        C672   1.404       .  A
C668        C669   1.396       .  A
C668        F673   1.358       .  S
C669        C670   1.411       .  A
C669        F675   1.358       .  S
C670        C671   1.408       .  A
C671        C672   1.400       .  A
C671        F674   1.358       .  S
C672        F676   1.358       .  S
C679        C680   1.399       .  A
C679        C684   1.398       .  A
C679        F697   1.358       .  S
C680        C685   1.475       .  S
C680        C681   1.401       .  A
C681        C682   1.401       .  A
C681        F686   1.358       .  S
C682        C683   1.415       .  A
C682        F698   1.357       .  S
C683        C684   1.416       .  A
C684        F687   1.355       .  S
C685        C688   1.403       .  A
C685        C692   1.402       .  A
C688        C689   1.400       .  A
C688        F693   1.358       .  S
C689        C690   1.409       .  A
C689        F695   1.358       .  S
C690        C691   1.409       .  A
C691        C692   1.399       .  A
C691        F694   1.358       .  S
C692        F696   1.358       .  S
C699        C700   1.404       .  A
C699        C704   1.398       .  A
C699        F717   1.358       .  S
C700        C705   1.482       .  S
C700        C701   1.406       .  A
C701        C702   1.403       .  A
C701        F706   1.358       .  S
C702        C703   1.408       .  A
C702        F718   1.358       .  S
C703        C704   1.407       .  A
C704        F707   1.358       .  S
C705        C708   1.400       .  A
C705        C712   1.403       .  A
C708        C709   1.400       .  A
C708        F713   1.358       .  S
C709        C710   1.417       .  A
C709        F715   1.355       .  S
C710        C711   1.414       .  A
C711        C712   1.402       .  A
C711        F714   1.357       .  S
C712        F716   1.358       .  S
C719        C720   1.408       .  A
C719        C724   1.403       .  A
C719        F737   1.358       .  S
C720        C725   1.499       .  S
C720        C721   1.410       .  A
C721        C722   1.407       .  A
C721        F726   1.357   1_545  S
C722        C723   1.409       .  A
C722        F738   1.357       .  S
C723        C724   1.411       .  A
C724        F727   1.358       .  S
C725        C728   1.409       .  A
C725        C732   1.406   1_545  A
C728        C729   1.406       .  A
C728        F733   1.358       .  S
C729        C730   1.413   1_545  A
C729        F735   1.358       .  S
C730        C731   1.414       .  A
C731        C732   1.402       .  A
C731        F734   1.358       .  S
C732        F736   1.357       .  S
C739        C740   1.407       .  A
C739        C744   1.401       .  A
C739        F757   1.358       .  S
C740        C745   1.490       .  S
C740        C741   1.408       .  A
C741        C742   1.403       .  A
C741        F746   1.358       .  S
C742        C743   1.407       .  A
C742        F758   1.358       .  S
C743        C744   1.408       .  A
C744        F747   1.358       .  S
C745        C748   1.406       .  A
C745        C752   1.406       .  A
C748        C749   1.401       .  A
C748        F753   1.358       .  S
C749        C750   1.411       .  A
C749        F755   1.358       .  S
C750        C751   1.410       .  A
C751        C752   1.402       .  A
C751        F754   1.358       .  S
C752        F756   1.358       .  S
C759        C760   1.404       .  A
C759        C764   1.403       .  A
C759        F777   1.357       .  S
C760        C765   1.488       .  S
C760        C761   1.408       .  A
C761        C762   1.402       .  A
C761        F766   1.358       .  S
C762        C763   1.407       .  A
C762        F778   1.358       .  S
C763        C764   1.412       .  A
C764        F767   1.358       .  S
C765        C768   1.408       .  A
C765        C772   1.405       .  A
C768        C769   1.407       .  A
C768        F773   1.357   1_655  S
C769        C770   1.408       .  A
C769        F775   1.357   1_655  S
C770        C771   1.408       .  A
C771        C772   1.398       .  A
C771        F774   1.358       .  S
C772        F776   1.358       .  S
C779        C780   1.401       .  A
C779        C784   1.402       .  A
C779        F797   1.358       .  S
C780        C785   1.487       .  S
C780        C781   1.405       .  A
C781        C782   1.405       .  A
C781        F786   1.355       .  S
C782        C783   1.412       .  A
C782        F798   1.357       .  S
C783        C784   1.415       .  A
C784        F787   1.358       .  S
C785        C788   1.405   1_655  A
C785        C792   1.401       .  A
C788        C789   1.408       .  A
C788        F793   1.357       .  S
C789        C790   1.413       .  A
C789        F795   1.357       .  S
C790        C791   1.416   1_455  A
C791        C792   1.400       .  A
C791        F794   1.358       .  S
C792        F796   1.358       .  S
C799        C800   1.404       .  A
C799        C804   1.402       .  A
C799        F817   1.358       .  S
C800        C805   1.487       .  S
C800        C801   1.403   1_455  A
C801        C802   1.403       .  A
C801        F806   1.356       .  S
C802        C803   1.411       .  A
C802        F818   1.358       .  S
C803        C804   1.411   1_655  A
C804        F807   1.358       .  S
C805        C808   1.407       .  A
C805        C812   1.405       .  A
C808        C809   1.402       .  A
C808        F813   1.358       .  S
C809        C810   1.407       .  A
C809        F815   1.358       .  S
C810        C811   1.410       .  A
C811        C812   1.403       .  A
C811        F814   1.358       .  S
C812        F816   1.357       .  S
C819        C820   1.406       .  A
C819        C824   1.398       .  A
C819        F837   1.358       .  S
C820        C825   1.485       .  S
C820        C821   1.407       .  A
C821        C822   1.403       .  A
C821        F826   1.358   1_554  S
C822        C823   1.407       .  A
C822        F838   1.357       .  S
C823        C824   1.406       .  A
C824        F827   1.358       .  S
C825        C828   1.407       .  A
C825        C832   1.402   1_554  A
C828        C829   1.402       .  A
C828        F833   1.358       .  S
C829        C830   1.409   1_554  A
C829        F835   1.358       .  S
C830        C831   1.415       .  A
C831        C832   1.397       .  A
C831        F834   1.358       .  S
C832        F836   1.358       .  S
C839        C840   1.402   1_556  A
C839        C844   1.399       .  A
C839        F857   1.358       .  S
C840        C845   1.480       .  S
C840        C841   1.403       .  A
C841        C842   1.400       .  A
C841        F846   1.358       .  S
C842        C843   1.412   1_554  A
C842        F858   1.358       .  S
C843        C844   1.415       .  A
C844        F847   1.358       .  S
C845        C848   1.404       .  A
C845        C852   1.406       .  A
C848        C849   1.400       .  A
C848        F853   1.357       .  S
C849        C850   1.408       .  A
C849        F855   1.358       .  S
C850        C851   1.406       .  A
C851        C852   1.399       .  A
C851        F854   1.358       .  S
C852        F856   1.358       .  S
C859        C860   1.401       .  A
C859        C864   1.398       .  A
C859        F877   1.358       .  S
C860        C865   1.474   1_655  S
C860        C861   1.403       .  A
C861        C862   1.396       .  A
C861        F866   1.355       .  S
C862        C863   1.407       .  A
C862        F878   1.358       .  S
C863        C864   1.411       .  A
C864        F867   1.358       .  S
C865        C868   1.401       .  A
C865        C872   1.403   1_455  A
C868        C869   1.396       .  A
C868        F873   1.357       .  S
C869        C870   1.412       .  A
C869        F875   1.358       .  S
C870        C871   1.409   1_455  A
C871        C872   1.397       .  A
C871        F874   1.358       .  S
C872        F876   1.358       .  S
C879        C880   1.409       .  A
C879        C884   1.401       .  A
C879        F897   1.358       .  S
C880        C885   1.485       .  S
C880        C881   1.406       .  A
C881        C882   1.396       .  A
C881        F886   1.358       .  S
C882        C883   1.404       .  A
C882        F898   1.358       .  S
C883        C884   1.405       .  A
C884        F887   1.358       .  S
C885        C888   1.405       .  A
C885        C892   1.407       .  A
C888        C889   1.398       .  A
C888        F893   1.358       .  S
C889        C890   1.410       .  A
C889        F895   1.358       .  S
C890        C891   1.409       .  A
C891        C892   1.399       .  A
C891        F894   1.358       .  S
C892        F896   1.358       .  S
C899        C900   1.404       .  A
C899        C904   1.397       .  A
C899        F917   1.358       .  S
C900        C905   1.473       .  S
C900        C901   1.404       .  A
C901        C902   1.399       .  A
C901        F906   1.358       .  S
C902        C903   1.404       .  A
C902        F918   1.358       .  S
C903        C904   1.404       .  A
C904        F907   1.358       .  S
C905        C908   1.400       .  A
C905        C912   1.402       .  A
C908        C909   1.397       .  A
C908        F913   1.358       .  S
C909        C910   1.413       .  A
C909        F915   1.358       .  S
C910        C911   1.411       .  A
C911        C912   1.397       .  A
C911        F914   1.358       .  S
C912        F916   1.358       .  S
C919        C920   1.406       .  A
C919        C924   1.397       .  A
C919        F937   1.358       .  S
C920        C925   1.478       .  S
C920        C921   1.406       .  A
C921        C922   1.398       .  A
C921        F926   1.358       .  S
C922        C923   1.404       .  A
C922        F938   1.358       .  S
C923        C924   1.404       .  A
C924        F927   1.358       .  S
C925        C928   1.405       .  A
C925        C932   1.405       .  A
C928        C929   1.396       .  A
C928        F933   1.358       .  S
C929        C930   1.407       .  A
C929        F935   1.358       .  S
C930        C931   1.407       .  A
C931        C932   1.398       .  A
C931        F934   1.358       .  S
C932        F936   1.358       .  S
C939        C940   1.404       .  A
C939        C944   1.399       .  A
C939        F957   1.358       .  S
C940        C945   1.480       .  S
C940        C941   1.408       .  A
C941        C942   1.395       .  A
C941        F946   1.358       .  S
C942        C943   1.404       .  A
C942        F958   1.358       .  S
C943        C944   1.410       .  A
C944        F947   1.358       .  S
C945        C948   1.408       .  A
C945        C952   1.404       .  A
C948        C949   1.401       .  A
C948        F953   1.357       .  S
C949        C950   1.404       .  A
C949        F955   1.357   1_455  S
C950        C951   1.407       .  A
C951        C952   1.393       .  A
C951        F954   1.357       .  S
C952        F956   1.359       .  S
C959        C960   1.408       .  A
C959        C964   1.400       .  A
C959        F977   1.358       .  S
C960        C965   1.484       .  S
C960        C961   1.405       .  A
C961        C962   1.401       .  A
C961        F966   1.358   1_565  S
C962        C963   1.408       .  A
C962        F978   1.358       .  S
C963        C964   1.405       .  A
C964        F967   1.358       .  S
C965        C968   1.406       .  A
C965        C972   1.403   1_565  A
C968        C969   1.402       .  A
C968        F973   1.358       .  S
C969        C970   1.411   1_565  A
C969        F975   1.358       .  S
C970        C971   1.413       .  A
C971        C972   1.397       .  A
C971        F974   1.358       .  S
C972        F976   1.358       .  S
C979        C980   1.407       .  A
C979        C984   1.398       .  A
C979        F997   1.358       .  S
C980        C985   1.480       .  S
C980        C981   1.406       .  A
C981        C982   1.396       .  A
C981        F986   1.358       .  S
C982        C983   1.405       .  A
C982        F998   1.358       .  S
C983        C984   1.403       .  A
C984        F987   1.358       .  S
C985        C988   1.405       .  A
C985        C992   1.406       .  A
C988        C989   1.398       .  A
C988        F993   1.358       .  S
C989        C990   1.407       .  A
C989        F995   1.358       .  S
C990        C991   1.408       .  A
C991        C992   1.396       .  A
C991        F994   1.358       .  S
C992        F996   1.358       .  S
C999       C1000   1.400       .  A
C999       C1004   1.397       .  A
C999       F1017   1.358       .  S
C1000      C1005   1.473       .  S
C1000      C1001   1.401       .  A
C1001      C1002   1.398       .  A
C1001      F1006   1.358       .  S
C1002      C1003   1.415       .  A
C1002      F1018   1.358       .  S
C1003      C1004   1.415       .  A
C1004      F1007   1.357       .  S
C1005      C1008   1.402       .  A
C1005      C1012   1.405       .  A
C1008      C1009   1.395       .  A
C1008      F1013   1.358       .  S
C1009      C1010   1.405       .  A
C1009      F1015   1.358       .  S
C1010      C1011   1.406       .  A
C1011      C1012   1.400       .  A
C1011      F1014   1.358       .  S
C1012      F1016   1.358       .  S
C1019      C1020   1.406       .  A
C1019      C1024   1.396       .  A
C1019      F1037   1.358       .  S
C1020      C1025   1.476       .  S
C1020      C1021   1.406       .  A
C1021      C1022   1.397       .  A
C1021      F1026   1.358       .  S
C1022      C1023   1.404       .  A
C1022      F1038   1.358       .  S
C1023      C1024   1.402       .  A
C1024      F1027   1.358       .  S
C1025      C1028   1.404       .  A
C1025      C1032   1.406       .  A
C1028      C1029   1.394       .  A
C1028      F1033   1.358       .  S
C1029      C1030   1.408       .  A
C1029      F1035   1.358       .  S
C1030      C1031   1.406       .  A
C1031      C1032   1.398       .  A
C1031      F1034   1.358       .  S
C1032      F1036   1.358       .  S
C1039      C1040   1.405       .  A
C1039      C1044   1.404       .  A
C1039      F1057   1.357       .  S
C1040      C1045   1.487       .  S
C1040      C1041   1.408       .  A
C1041      C1042   1.399       .  A
C1041      F1046   1.358       .  S
C1042      C1043   1.405       .  A
C1042      F1058   1.358       .  S
C1043      C1044   1.409       .  A
C1044      F1047   1.358       .  S
C1045      C1048   1.408       .  A
C1045      C1052   1.405       .  A
C1048      C1049   1.407   1_554  A
C1048      F1053   1.357   1_554  S
C1049      C1050   1.408   1_556  A
C1049      F1055   1.357       .  S
C1050      C1051   1.407       .  A
C1051      C1052   1.396       .  A
C1051      F1054   1.358       .  S
C1052      F1056   1.358       .  S
C1059      C1060   1.402       .  A
C1059      C1064   1.398       .  A
C1059      F1077   1.358       .  S
C1060      C1065   1.474       .  S
C1060      C1061   1.406       .  A
C1061      C1062   1.395       .  A
C1061      F1066   1.358       .  S
C1062      C1063   1.404       .  A
C1062      F1078   1.358       .  S
C1063      C1064   1.409       .  A
C1064      F1067   1.358       .  S
C1065      C1068   1.404       .  A
C1065      C1072   1.404       .  A
C1068      C1069   1.401       .  A
C1068      F1073   1.358   1_556  S
C1069      C1070   1.407       .  A
C1069      F1075   1.358   1_556  S
C1070      C1071   1.405       .  A
C1071      C1072   1.393       .  A
C1071      F1074   1.358       .  S
C1072      F1076   1.358       .  S
C1079      C1080   1.405       .  A
C1079      C1084   1.405       .  A
C1079      F1097   1.358       .  S
C1080      C1085   1.487       .  S
C1080      C1081   1.402   1_545  A
C1081      C1082   1.399       .  A
C1081      F1086   1.358       .  S
C1082      C1083   1.415       .  A
C1082      F1098   1.358       .  S
C1083      C1084   1.414   1_565  A
C1084      F1087   1.358       .  S
C1085      C1088   1.407       .  A
C1085      C1092   1.404       .  A
C1088      C1089   1.401       .  A
C1088      F1093   1.357       .  S
C1089      C1090   1.407       .  A
C1089      F1095   1.358       .  S
C1090      C1091   1.411       .  A
C1091      C1092   1.404       .  A
C1091      F1094   1.358       .  S
C1092      F1096   1.357       .  S
C1099      C1100   1.404       .  A
C1099      C1104   1.401       .  A
C1099      F1117   1.358       .  S
C1100      C1105   1.486       .  S
C1100      C1101   1.408       .  A
C1101      C1102   1.403       .  A
C1101      F1106   1.358       .  S
C1102      C1103   1.407       .  A
C1102      F1118   1.358       .  S
C1103      C1104   1.409       .  A
C1104      F1107   1.358       .  S
C1105      C1108   1.403   1_565  A
C1105      C1112   1.405       .  A
C1108      C1109   1.402       .  A
C1108      F1113   1.357       .  S
C1109      C1110   1.415   1_545  A
C1109      F1115   1.358       .  S
C1110      C1111   1.412       .  A
C1111      C1112   1.402       .  A
C1111      F1114   1.358       .  S
C1112      F1116   1.358       .  S
C1119      C1120   1.405       .  A
C1119      C1124   1.399       .  A
C1119      F1137   1.357       .  S
C1120      C1125   1.481       .  S
C1120      C1121   1.403       .  A
C1121      C1122   1.400       .  A
C1121      F1126   1.358       .  S
C1122      C1123   1.412       .  A
C1122      F1138   1.358       .  S
C1123      C1124   1.410       .  A
C1124      F1127   1.358       .  S
C1125      C1128   1.404       .  A
C1125      C1132   1.404   1_554  A
C1128      C1129   1.399       .  A
C1128      F1133   1.358       .  S
C1129      C1130   1.410   1_554  A
C1129      F1135   1.358       .  S
C1130      C1131   1.411       .  A
C1131      C1132   1.400       .  A
C1131      F1134   1.358       .  S
C1132      F1136   1.358       .  S
C1139      C1140   1.405       .  A
C1139      C1144   1.400       .  A
C1139      F1157   1.357   1_556  S
C1140      C1145   1.480       .  S
C1140      C1141   1.407       .  A
C1141      C1142   1.399       .  A
C1141      F1146   1.358       .  S
C1142      C1143   1.404       .  A
C1142      F1158   1.358       .  S
C1143      C1144   1.404       .  A
C1144      F1147   1.358       .  S
C1145      C1148   1.403   1_556  A
C1145      C1152   1.403       .  A
C1148      C1149   1.401       .  A
C1148      F1153   1.358       .  S
C1149      C1150   1.414   1_554  A
C1149      F1155   1.358       .  S
C1150      C1151   1.410       .  A
C1151      C1152   1.397       .  A
C1151      F1154   1.358       .  S
C1152      F1156   1.358       .  S
C1159      C1160   1.405   1_655  A
C1159      C1164   1.406       .  A
C1159      F1177   1.357       .  S
C1160      C1165   1.490       .  S
C1160      C1161   1.404       .  A
C1161      C1162   1.401       .  A
C1161      F1166   1.358       .  S
C1162      C1163   1.413       .  A
C1162      F1178   1.358       .  S
C1163      C1164   1.412   1_455  A
C1164      F1167   1.358       .  S
C1165      C1168   1.404       .  A
C1165      C1172   1.407       .  A
C1168      C1169   1.403       .  A
C1168      F1173   1.358       .  S
C1169      C1170   1.412       .  A
C1169      F1175   1.358       .  S
C1170      C1171   1.409       .  A
C1171      C1172   1.404       .  A
C1171      F1174   1.358       .  S
C1172      F1176   1.356       .  S
C1179      C1180   1.401   1_565  A
C1179      C1184   1.401       .  A
C1179      F1197   1.357       .  S
C1180      C1185   1.483       .  S
C1180      C1181   1.404       .  A
C1181      C1182   1.402       .  A
C1181      F1186   1.358       .  S
C1182      C1183   1.413   1_545  A
C1182      F1198   1.358       .  S
C1183      C1184   1.415       .  A
C1184      F1187   1.358       .  S
C1185      C1188   1.406       .  A
C1185      C1192   1.406       .  A
C1188      C1189   1.404       .  A
C1188      F1193   1.357   1_545  S
C1189      C1190   1.406       .  A
C1189      F1195   1.358       .  S
C1190      C1191   1.403       .  A
C1191      C1192   1.399       .  A
C1191      F1194   1.358       .  S
C1192      F1196   1.358       .  S
C1199      C1200   1.407   1_554  A
C1199      C1204   1.404       .  A
C1199      F1217   1.358       .  S
C1200      C1205   1.501       .  S
C1200      C1201   1.410       .  A
C1201      C1202   1.406       .  A
C1201      F1206   1.358       .  S
C1202      C1203   1.412   1_556  A
C1202      F1218   1.358       .  S
C1203      C1204   1.414       .  A
C1204      F1207   1.358       .  S
C1205      C1208   1.408       .  A
C1205      C1212   1.411       .  A
C1208      C1209   1.405       .  A
C1208      F1213   1.358       .  S
C1209      C1210   1.413       .  A
C1209      F1215   1.358       .  S
C1210      C1211   1.409       .  A
C1211      C1212   1.406       .  A
C1211      F1214   1.357       .  S
C1212      F1216   1.357       .  S
C1219      C1220   1.405       .  A
C1219      C1224   1.403       .  A
C1219      F1237   1.358       .  S
C1220      C1225   1.479       .  S
C1220      C1221   1.403       .  A
C1221      C1222   1.398       .  A
C1221      F1226   1.358       .  S
C1222      C1223   1.407       .  A
C1222      F1238   1.358       .  S
C1223      C1224   1.409       .  A
C1224      F1227   1.358       .  S
C1225      C1228   1.404       .  A
C1225      C1232   1.402       .  A
C1228      C1229   1.402       .  A
C1228      F1233   1.358       .  S
C1229      C1230   1.411       .  A
C1229      F1235   1.358       .  S
C1230      C1231   1.411       .  A
C1231      C1232   1.398       .  A
C1231      F1234   1.358       .  S
C1232      F1236   1.358       .  S
C1239      C1240   1.407       .  A
C1239      C1244   1.398       .  A
C1239      F1257   1.358       .  S
C1240      C1245   1.484       .  S
C1240      C1241   1.407       .  A
C1241      C1242   1.400       .  A
C1241      F1246   1.358       .  S
C1242      C1243   1.405       .  A
C1242      F1258   1.358       .  S
C1243      C1244   1.403       .  A
C1244      F1247   1.358       .  S
C1245      C1248   1.405       .  A
C1245      C1252   1.407       .  A
C1248      C1249   1.397       .  A
C1248      F1253   1.358       .  S
C1249      C1250   1.408       .  A
C1249      F1255   1.358       .  S
C1250      C1251   1.409       .  A
C1251      C1252   1.402       .  A
C1251      F1254   1.358       .  S
C1252      F1256   1.358       .  S
C1259      C1260   1.406       .  A
C1259      C1264   1.400       .  A
C1259      F1277   1.358       .  S
C1260      C1265   1.486       .  S
C1260      C1261   1.407       .  A
C1261      C1262   1.401       .  A
C1261      F1266   1.358       .  S
C1262      C1263   1.408       .  A
C1262      F1278   1.358       .  S
C1263      C1264   1.409       .  A
C1264      F1267   1.358       .  S
C1265      C1268   1.405       .  A
C1265      C1272   1.405       .  A
C1268      C1269   1.400       .  A
C1268      F1273   1.358       .  S
C1269      C1270   1.413       .  A
C1269      F1275   1.358       .  S
C1270      C1271   1.412       .  A
C1271      C1272   1.399       .  A
C1271      F1274   1.357       .  S
C1272      F1276   1.358       .  S
C1279      C1280   1.405       .  A
C1279      C1284   1.405       .  A
C1279      F1297   1.358       .  S
C1280      C1285   1.490       .  S
C1280      C1281   1.403   1_556  A
C1281      C1282   1.402       .  A
C1281      F1286   1.357       .  S
C1282      C1283   1.414       .  A
C1282      F1298   1.358       .  S
C1283      C1284   1.414   1_554  A
C1284      F1287   1.358       .  S
C1285      C1288   1.408       .  A
C1285      C1292   1.405       .  A
C1288      C1289   1.404       .  A
C1288      F1293   1.358       .  S
C1289      C1290   1.407       .  A
C1289      F1295   1.358       .  S
C1290      C1291   1.409       .  A
C1291      C1292   1.404       .  A
C1291      F1294   1.358       .  S
C1292      F1296   1.358       .  S
C1299      C1300   1.405       .  A
C1299      C1304   1.396       .  A
C1299      F1317   1.358       .  S
C1300      C1305   1.482       .  S
C1300      C1301   1.406       .  A
C1301      C1302   1.402       .  A
C1301      F1306   1.357   1_655  S
C1302      C1303   1.406       .  A
C1302      F1318   1.358   1_655  S
C1303      C1304   1.405       .  A
C1304      F1307   1.358       .  S
C1305      C1308   1.407       .  A
C1305      C1312   1.404       .  A
C1308      C1309   1.398       .  A
C1308      F1313   1.358       .  S
C1309      C1310   1.406       .  A
C1309      F1315   1.358       .  S
C1310      C1311   1.410       .  A
C1311      C1312   1.401       .  A
C1311      F1314   1.358       .  S
C1312      F1316   1.358       .  S
C1319      C1320   1.401       .  A
C1319      C1324   1.400       .  A
C1319      F1337   1.358       .  S
C1320      C1325   1.482       .  S
C1320      C1321   1.402       .  A
C1321      C1322   1.401       .  A
C1321      F1326   1.358       .  S
C1322      C1323   1.415       .  A
C1322      F1338   1.357       .  S
C1323      C1324   1.416       .  A
C1324      F1327   1.357       .  S
C1325      C1328   1.406       .  A
C1325      C1332   1.406       .  A
C1328      C1329   1.401       .  A
C1328      F1333   1.358       .  S
C1329      C1330   1.406       .  A
C1329      F1335   1.358       .  S
C1330      C1331   1.405       .  A
C1331      C1332   1.400       .  A
C1331      F1334   1.358       .  S
C1332      F1336   1.358       .  S
C1339      C1340   1.403       .  A
C1339      C1344   1.400       .  A
C1339      F1357   1.358       .  S
C1340      C1345   1.478       .  S
C1340      C1341   1.403       .  A
C1341      C1342   1.400       .  A
C1341      F1346   1.358       .  S
C1342      C1343   1.410       .  A
C1342      F1358   1.358       .  S
C1343      C1344   1.410       .  A
C1344      F1347   1.358       .  S
C1345      C1348   1.402       .  A
C1345      C1352   1.401       .  A
C1348      C1349   1.401       .  A
C1348      F1353   1.358       .  S
C1349      C1350   1.413       .  A
C1349      F1355   1.357       .  S
C1350      C1351   1.413       .  A
C1351      C1352   1.400       .  A
C1351      F1354   1.357       .  S
C1352      F1356   1.358       .  S
C1359      C1360   1.410       .  A
C1359      C1364   1.404       .  A
C1359      F1377   1.357       .  S
C1360      C1365   1.494       .  S
C1360      C1361   1.407       .  A
C1361      C1362   1.404       .  A
C1361      F1366   1.358       .  S
C1362      C1363   1.408       .  A
C1362      F1378   1.358       .  S
C1363      C1364   1.404       .  A
C1364      F1367   1.358       .  S
C1365      C1368   1.408       .  A
C1365      C1372   1.404       .  A
C1368      C1369   1.406       .  A
C1368      F1373   1.358       .  S
C1369      C1370   1.411       .  A
C1369      F1375   1.357       .  S
C1370      C1371   1.416   1_565  A
C1371      C1372   1.402   1_545  A
C1371      F1374   1.358       .  S
C1372      F1376   1.358   1_565  S
C1379      C1380   1.408       .  A
C1379      C1384   1.404       .  A
C1379      F1397   1.358       .  S
C1380      C1385   1.489       .  S
C1380      C1381   1.407       .  A
C1381      C1382   1.398       .  A
C1381      F1386   1.358       .  S
C1382      C1383   1.408       .  A
C1382      F1398   1.358       .  S
C1383      C1384   1.409       .  A
C1384      F1387   1.358       .  S
C1385      C1388   1.405       .  A
C1385      C1392   1.406       .  A
C1388      C1389   1.398       .  A
C1388      F1393   1.358       .  S
C1389      C1390   1.411       .  A
C1389      F1395   1.357       .  S
C1390      C1391   1.413       .  A
C1391      C1392   1.404       .  A
C1391      F1394   1.357       .  S
C1392      F1396   1.358       .  S
C1399      C1400   1.403       .  A
C1399      C1404   1.397       .  A
C1399      F1417   1.358       .  S
C1400      C1405   1.469       .  S
C1400      C1401   1.400       .  A
C1401      C1402   1.396       .  A
C1401      F1406   1.358       .  S
C1402      C1403   1.410       .  A
C1402      F1418   1.357       .  S
C1403      C1404   1.408       .  A
C1404      F1407   1.357       .  S
C1405      C1408   1.406       .  A
C1405      C1412   1.400       .  A
C1408      C1409   1.393       .  A
C1408      F1413   1.356       .  S
C1409      C1410   1.399       .  A
C1409      F1415   1.358       .  S
C1410      C1411   1.415       .  A
C1411      C1412   1.390       .  A
C1411      F1414   1.360       .  S
C1412      F1416   1.359       .  S
C1419      C1420   1.406       .  A
C1419      C1424   1.395       .  A
C1419      F1437   1.359       .  S
C1420      C1425   1.474       .  S
C1420      C1421   1.405       .  A
C1421      C1422   1.398       .  A
C1421      F1426   1.358       .  S
C1422      C1423   1.404       .  A
C1422      F1438   1.357       .  S
C1423      C1424   1.404       .  A
C1424      F1427   1.358       .  S
C1425      C1428   1.405       .  A
C1425      C1432   1.404       .  A
C1428      C1429   1.392       .  A
C1428      F1433   1.358       .  S
C1429      C1430   1.408       .  A
C1429      F1435   1.360       .  S
C1430      C1431   1.405       .  A
C1431      C1432   1.390       .  A
C1431      F1434   1.359       .  S
C1432      F1436   1.356       .  S
C1439      C1440   1.405       .  A
C1439      C1444   1.400       .  A
C1439      F1457   1.357       .  S
C1440      C1445   1.481       .  S
C1440      C1441   1.404       .  A
C1441      C1442   1.400       .  A
C1441      F1446   1.358       .  S
C1442      C1443   1.409       .  A
C1442      F1458   1.358       .  S
C1443      C1444   1.408       .  A
C1444      F1447   1.358       .  S
C1445      C1448   1.402       .  A
C1445      C1452   1.404       .  A
C1448      C1449   1.397       .  A
C1448      F1453   1.358       .  S
C1449      C1450   1.410       .  A
C1449      F1455   1.358       .  S
C1450      C1451   1.414       .  A
C1451      C1452   1.405       .  A
C1451      F1454   1.358       .  S
C1452      F1456   1.357       .  S
C1459      C1460   1.403       .  A
C1459      C1464   1.404       .  A
C1459      F1477   1.359       .  S
C1460      C1465   1.487       .  S
C1460      C1461   1.405       .  A
C1461      C1462   1.401       .  A
C1461      F1466   1.355       .  S
C1462      C1463   1.401       .  A
C1462      F1478   1.355       .  S
C1463      C1464   1.423       .  A
C1464      F1467   1.360       .  S
C1465      C1468   1.404       .  A
C1465      C1472   1.406       .  A
C1468      C1469   1.402       .  A
C1468      F1473   1.358       .  S
C1469      C1470   1.410       .  A
C1469      F1475   1.358       .  S
C1470      C1471   1.409       .  A
C1471      C1472   1.404       .  A
C1471      F1474   1.358       .  S
C1472      F1476   1.356       .  S
C1479      C1480   1.405       .  A
C1479      C1484   1.399       .  A
C1479      F1497   1.359       .  S
C1480      C1485   1.472       .  S
C1480      C1481   1.401       .  A
C1481      C1482   1.397       .  A
C1481      F1486   1.358       .  S
C1482      C1483   1.407       .  A
C1482      F1498   1.357       .  S
C1483      C1484   1.406       .  A
C1484      F1487   1.357       .  S
C1485      C1488   1.407       .  A
C1485      C1492   1.401       .  A
C1488      C1489   1.395       .  A
C1488      F1493   1.356       .  S
C1489      C1490   1.397       .  A
C1489      F1495   1.358       .  S
C1490      C1491   1.412       .  A
C1491      C1492   1.391       .  A
C1491      F1494   1.360       .  S
C1492      F1496   1.358       .  S
C1499      C1500   1.398       .  A
C1499      C1504   1.389       .  A
C1499      F1517   1.358       .  S
C1500      C1505   1.461       .  S
C1500      C1501   1.400       .  A
C1501      C1502   1.393       .  A
C1501      F1506   1.356       .  S
C1502      C1503   1.406       .  A
C1502      F1518   1.358       .  S
C1503      C1504   1.413       .  A
C1504      F1507   1.360       .  S
C1505      C1508   1.402       .  A
C1505      C1512   1.399       .  A
C1508      C1509   1.396       .  A
C1508      F1513   1.358       .  S
C1509      C1510   1.405       .  A
C1509      F1515   1.358       .  S
C1510      C1511   1.406       .  A
C1511      C1512   1.395       .  A
C1511      F1514   1.357       .  S
C1512      F1516   1.358       .  S
C1519      C1520   1.404       .  A
C1519      C1524   1.399       .  A
C1519      F1537   1.357       .  S
C1520      C1525   1.483       .  S
C1520      C1521   1.404       .  A
C1521      C1522   1.403       .  A
C1521      F1526   1.358       .  S
C1522      C1523   1.413       .  A
C1522      F1538   1.358       .  S
C1523      C1524   1.408       .  A
C1524      F1527   1.358       .  S
C1525      C1528   1.407       .  A
C1525      C1532   1.404       .  A
C1528      C1529   1.401       .  A
C1528      F1533   1.357       .  S
C1529      C1530   1.404       .  A
C1529      F1535   1.358       .  S
C1530      C1531   1.409       .  A
C1531      C1532   1.401       .  A
C1531      F1534   1.358       .  S
C1532      F1536   1.358       .  S
C1539      C1540   1.407       .  A
C1539      C1544   1.402       .  A
C1539      F1557   1.356       .  S
C1540      C1545   1.489       .  S
C1540      C1541   1.403       .  A
C1541      C1542   1.403       .  A
C1541      F1546   1.359       .  S
C1542      C1543   1.422       .  A
C1542      F1558   1.360       .  S
C1543      C1544   1.401       .  A
C1544      F1547   1.356       .  S
C1545      C1548   1.406       .  A
C1545      C1552   1.408       .  A
C1548      C1549   1.402       .  A
C1548      F1553   1.358       .  S
C1549      C1550   1.406       .  A
C1549      F1555   1.358       .  S
C1550      C1551   1.406       .  A
C1551      C1552   1.406       .  A
C1551      F1554   1.357       .  S
C1552      F1556   1.358       .  S
C1559      C1560   1.407       .  A
C1559      C1564   1.396       .  A
C1559      F1577   1.359       .  S
C1560      C1565   1.488       .  S
C1560      C1561   1.406       .  A
C1561      C1562   1.403       .  A
C1561      F1566   1.358       .  S
C1562      C1563   1.412       .  A
C1562      F1578   1.357       .  S
C1563      C1564   1.412       .  A
C1564      F1567   1.358       .  S
C1565      C1568   1.414       .  A
C1565      C1572   1.405       .  A
C1568      C1569   1.405       .  A
C1568      F1573   1.357       .  S
C1569      C1570   1.401       .  A
C1569      F1575   1.357       .  S
C1570      C1571   1.406       .  A
C1571      C1572   1.385       .  A
C1571      F1574   1.359       .  S
C1572      F1576   1.358       .  S
C1579      C1580   1.401       .  A
C1579      C1584   1.396       .  A
C1579      F1597   1.359       .  S
C1580      C1585   1.480       .  S
C1580      C1581   1.407       .  A
C1581      C1582   1.398       .  A
C1581      F1586   1.356       .  S
C1582      C1583   1.402       .  A
C1582      F1598   1.357       .  S
C1583      C1584   1.418       .  A
C1584      F1587   1.359       .  S
C1585      C1588   1.400       .  A
C1585      C1592   1.407       .  A
C1588      C1589   1.398       .  A
C1588      F1593   1.358       .  S
C1589      C1590   1.416       .  A
C1589      F1595   1.358       .  S
C1590      C1591   1.410       .  A
C1591      C1592   1.401       .  A
C1591      F1594   1.357       .  S
C1592      F1596   1.359       .  S
C1599      C1600   1.406       .  A
C1599      C1604   1.399       .  A
C1599      F1617   1.357       .  S
C1600      C1605   1.481       .  S
C1600      C1601   1.406       .  A
C1601      C1602   1.394       .  A
C1601      F1606   1.358       .  S
C1602      C1603   1.405       .  A
C1602      F1618   1.359       .  S
C1603      C1604   1.406       .  A
C1604      F1607   1.358       .  S
C1605      C1608   1.405       .  A
C1605      C1612   1.405       .  A
C1608      C1609   1.403       .  A
C1608      F1613   1.358       .  S
C1609      C1610   1.410       .  A
C1609      F1615   1.357       .  S
C1610      C1611   1.407       .  A
C1611      C1612   1.394       .  A
C1611      F1614   1.358       .  S
C1612      F1616   1.359       .  S
C1619      C1620   1.403       .  A
C1619      C1624   1.402       .  A
C1619      F1637   1.358       .  S
C1620      C1625   1.481       .  S
C1620      C1621   1.401       .  A
C1621      C1622   1.402       .  A
C1621      F1626   1.358       .  S
C1622      C1623   1.416       .  A
C1622      F1638   1.358       .  S
C1623      C1624   1.412       .  A
C1624      F1627   1.357       .  S
C1625      C1628   1.406       .  A
C1625      C1632   1.403       .  A
C1628      C1629   1.401       .  A
C1628      F1633   1.358       .  S
C1629      C1630   1.405       .  A
C1629      F1635   1.358       .  S
C1630      C1631   1.410       .  A
C1631      C1632   1.403       .  A
C1631      F1634   1.358       .  S
C1632      F1636   1.358       .  S
C1639      C1640   1.404       .  A
C1639      C1644   1.396       .  A
C1639      F1657   1.356       .  S
C1640      C1645   1.493       .  S
C1640      C1641   1.407       .  A
C1641      C1642   1.412       .  A
C1641      F1646   1.360       .  S
C1642      C1643   1.426       .  A
C1642      F1658   1.360       .  S
C1643      C1644   1.402       .  A
C1644      F1647   1.355       .  S
C1645      C1648   1.409       .  A
C1645      C1652   1.408       .  A
C1648      C1649   1.401       .  A
C1648      F1653   1.358       .  S
C1649      C1650   1.403       .  A
C1649      F1655   1.358       .  S
C1650      C1651   1.406       .  A
C1651      C1652   1.406       .  A
C1651      F1654   1.358       .  S
C1652      F1656   1.357       .  S
C1659      C1660   1.405       .  A
C1659      C1664   1.398       .  A
C1659      F1677   1.357       .  S
C1660      C1665   1.473       .  S
C1660      C1661   1.402       .  A
C1661      C1662   1.388       .  A
C1661      F1666   1.358       .  S
C1662      C1663   1.410       .  A
C1662      F1678   1.359       .  S
C1663      C1664   1.408       .  A
C1664      F1667   1.358       .  S
C1665      C1668   1.402       .  A
C1665      C1672   1.403       .  A
C1668      C1669   1.395       .  A
C1668      F1673   1.358       .  S
C1669      C1670   1.411       .  A
C1669      F1675   1.358       .  S
C1670      C1671   1.410       .  A
C1671      C1672   1.397       .  A
C1671      F1674   1.357       .  S
C1672      F1676   1.358       .  S
C1679      C1680   1.408       .  A
C1679      C1684   1.407       .  A
C1679      F1697   1.357       .  S
C1680      C1685   1.491       .  S
C1680      C1681   1.406       .  A
C1681      C1682   1.400       .  A
C1681      F1686   1.359       .  S
C1682      C1683   1.410       .  A
C1682      F1698   1.358       .  S
C1683      C1684   1.410       .  A
C1684      F1687   1.357       .  S
C1685      C1688   1.407       .  A
C1685      C1692   1.408       .  A
C1688      C1689   1.406       .  A
C1688      F1693   1.357       .  S
C1689      C1690   1.410       .  A
C1689      F1695   1.358       .  S
C1690      C1691   1.406       .  A
C1691      C1692   1.398       .  A
C1691      F1694   1.358       .  S
C1692      F1696   1.358       .  S
C1699      C1700   1.408       .  A
C1699      C1704   1.402       .  A
C1699      F1717   1.358       .  S
C1700      C1705   1.491       .  S
C1700      C1701   1.409       .  A
C1701      C1702   1.403       .  A
C1701      F1706   1.358       .  S
C1702      C1703   1.404       .  A
C1702      F1718   1.358       .  S
C1703      C1704   1.405       .  A
C1704      F1707   1.358       .  S
C1705      C1708   1.404       .  A
C1705      C1712   1.407       .  A
C1708      C1709   1.401       .  A
C1708      F1713   1.358       .  S
C1709      C1710   1.415       .  A
C1709      F1715   1.358       .  S
C1710      C1711   1.411       .  A
C1711      C1712   1.404       .  A
C1711      F1714   1.356       .  S
C1712      F1716   1.358       .  S
C1719      C1720   1.405       .  A
C1719      C1724   1.411       .  A
C1719      F1737   1.358       .  S
C1720      C1725   1.495       .  S
C1720      C1721   1.404       .  A
C1721      C1722   1.407       .  A
C1721      F1726   1.359       .  S
C1722      C1723   1.417       .  A
C1722      F1738   1.357       .  S
C1723      C1724   1.414       .  A
C1724      F1727   1.356       .  S
C1725      C1728   1.409       .  A
C1725      C1732   1.407       .  A
C1728      C1729   1.409       .  A
C1728      F1733   1.357       .  S
C1729      C1730   1.409       .  A
C1729      F1735   1.358       .  S
C1730      C1731   1.406       .  A
C1731      C1732   1.401       .  A
C1731      F1734   1.358       .  S
C1732      F1736   1.357       .  S
C1739      C1740   1.405       .  A
C1739      C1744   1.399       .  A
C1739      F1757   1.357       .  S
C1740      C1745   1.492       .  S
C1740      C1741   1.409       .  A
C1741      C1742   1.404       .  A
C1741      F1746   1.358       .  S
C1742      C1743   1.410       .  A
C1742      F1758   1.358       .  S
C1743      C1744   1.412       .  A
C1744      F1747   1.357       .  S
C1745      C1748   1.409       .  A
C1745      C1752   1.408       .  A
C1748      C1749   1.407       .  A
C1748      F1753   1.358       .  S
C1749      C1750   1.408       .  A
C1749      F1755   1.357       .  S
C1750      C1751   1.406       .  A
C1751      C1752   1.401       .  A
C1751      F1754   1.358       .  S
C1752      F1756   1.358       .  S
C1759      C1760   1.405       .  A
C1759      C1764   1.403       .  A
C1759      F1777   1.358       .  S
C1760      C1765   1.477       .  S
C1760      C1761   1.401       .  A
C1761      C1762   1.400       .  A
C1761      F1766   1.358       .  S
C1762      C1763   1.409       .  A
C1762      F1778   1.357       .  S
C1763      C1764   1.407       .  A
C1764      F1767   1.357       .  S
C1765      C1768   1.404       .  A
C1765      C1772   1.402       .  A
C1768      C1769   1.397       .  A
C1768      F1773   1.357       .  S
C1769      C1770   1.406       .  A
C1769      F1775   1.358       .  S
C1770      C1771   1.412       .  A
C1771      C1772   1.400       .  A
C1771      F1774   1.358       .  S
C1772      F1776   1.358       .  S
C1779      C1780   1.400       .  A
C1779      C1784   1.386       .  A
C1779      F1797   1.359       .  S
C1780      C1785   1.472       .  S
C1780      C1781   1.406       .  A
C1781      C1782   1.396       .  A
C1781      F1786   1.356       .  S
C1782      C1783   1.403       .  A
C1782      F1798   1.358       .  S
C1783      C1784   1.416       .  A
C1784      F1787   1.359   1_565  S
C1785      C1788   1.405       .  A
C1785      C1792   1.400       .  A
C1788      C1789   1.397       .  A
C1788      F1793   1.359   1_565  S
C1789      C1790   1.408       .  A
C1789      F1795   1.357       .  S
C1790      C1791   1.413       .  A
C1791      C1792   1.396       .  A
C1791      F1794   1.357       .  S
C1792      F1796   1.359       .  S
C1799      C1800   1.408       .  A
C1799      C1804   1.402       .  A
C1799      F1817   1.358       .  S
C1800      C1805   1.491       .  S
C1800      C1801   1.406       .  A
C1801      C1802   1.403       .  A
C1801      F1806   1.358       .  S
C1802      C1803   1.409       .  A
C1802      F1818   1.358       .  S
C1803      C1804   1.407       .  A
C1804      F1807   1.358       .  S
C1805      C1808   1.406       .  A
C1805      C1812   1.406       .  A
C1808      C1809   1.402       .  A
C1808      F1813   1.358       .  S
C1809      C1810   1.411       .  A
C1809      F1815   1.358       .  S
C1810      C1811   1.413       .  A
C1811      C1812   1.404       .  A
C1811      F1814   1.358       .  S
C1812      F1816   1.358       .  S
C1819      C1820   1.404       .  A
C1819      C1824   1.405       .  A
C1819      F1837   1.358       .  S
C1820      C1825   1.488       .  S
C1820      C1821   1.405       .  A
C1821      C1822   1.401       .  A
C1821      F1826   1.357       .  S
C1822      C1823   1.408       .  A
C1822      F1838   1.357       .  S
C1823      C1824   1.414       .  A
C1824      F1827   1.358       .  S
C1825      C1828   1.402       .  A
C1825      C1832   1.404       .  A
C1828      C1829   1.402       .  A
C1828      F1833   1.358       .  S
C1829      C1830   1.415       .  A
C1829      F1835   1.357       .  S
C1830      C1831   1.418       .  A
C1831      C1832   1.408       .  A
C1831      F1834   1.358       .  S
C1832      F1836   1.358       .  S
C1839      C1840   1.402       .  A
C1839      C1844   1.398       .  A
C1839      F1857   1.358       .  S
C1840      C1845   1.478       .  S
C1840      C1841   1.407       .  A
C1841      C1842   1.402       .  A
C1841      F1846   1.358       .  S
C1842      C1843   1.405       .  A
C1842      F1858   1.357       .  S
C1843      C1844   1.408       .  A
C1844      F1847   1.358       .  S
C1845      C1848   1.403       .  A
C1845      C1852   1.404       .  A
C1848      C1849   1.396       .  A
C1848      F1853   1.357       .  S
C1849      C1850   1.408       .  A
C1849      F1855   1.359       .  S
C1850      C1851   1.408       .  A
C1851      C1852   1.398       .  A
C1851      F1854   1.355       .  S
C1852      F1856   1.358       .  S
C1859      C1860   1.407       .  A
C1859      C1864   1.398       .  A
C1859      F1877   1.358       .  S
C1860      C1865   1.485       .  S
C1860      C1861   1.406       .  A
C1861      C1862   1.400       .  A
C1861      F1866   1.358       .  S
C1862      C1863   1.409       .  A
C1862      F1878   1.358       .  S
C1863      C1864   1.405       .  A
C1864      F1867   1.358       .  S
C1865      C1868   1.406       .  A
C1865      C1872   1.406       .  A
C1868      C1869   1.397       .  A
C1868      F1873   1.359       .  S
C1869      C1870   1.407       .  A
C1869      F1875   1.358       .  S
C1870      C1871   1.409       .  A
C1871      C1872   1.404       .  A
C1871      F1874   1.357       .  S
C1872      F1876   1.358       .  S
