geometry optimzed in LAMMPS
_audit_creation_date              2020-11-30 
_audit_creation_method            'lammps2cif' 
_symmetry_space_group_name_H-M    'P1' 
_symmetry_Int_Tables_number       1 
_symmetry_cell_setting            triclinic 
loop_ 
_symmetry_equiv_pos_as_xyz 
  x,y,z 
_cell_length_a                    64.00498513475124 
_cell_length_b                    64.39660974812996 
_cell_length_c                    28.10580158594118 
_cell_angle_alpha                 90.68369463567387 
_cell_angle_beta                  89.04388123711232 
_cell_angle_gamma                 123.49497839030721 
loop_ 
_atom_site_label 
_atom_site_type_symbol 
_atom_site_fract_x 
_atom_site_fract_y 
_atom_site_fract_z 
_atom_site_charge 
O1          O  0.77590158  0.28164800  0.19145231    -0.72790
O2          O  0.74242952  0.23007412  0.29451551    -0.73770
O3          O  0.74312650  0.22897650  0.19189777    -0.62390
O4          O  0.77523493  0.28277019  0.29172948    -0.70800
O5          O  0.74196376  0.28526208  0.29178524    -0.70350
O6          O  0.70996869  0.23165246  0.19230973    -0.61610
O7          O  0.70927987  0.23270328  0.29223341    -0.74110
O8          O  0.74265787  0.28413322  0.18936639    -0.72890
Cu9        Cu  0.76030465  0.25569784  0.24245542     1.04560
Cu10       Cu  0.72487709  0.25862692  0.24139314     1.04330
C11         C  0.76438510  0.29077046  0.17389486     0.93410
C12         C  0.72063807  0.22340032  0.30970218     0.92550
C13         C  0.72154880  0.22202315  0.17622195     0.84690
C14         C  0.76350889  0.29228380  0.30767499     0.90970
N15         N  0.44882283  0.86003601  0.10083460    -0.27130
N16         N  0.43553783  0.83802715  0.07969806    -0.34990
C17         C  0.43264985  0.82049134  0.10986139     0.01210
C18         C  0.44499025  0.83215725  0.15150558     0.07230
C19         C  0.45503238  0.85714902  0.14448151    -0.05870
H20         H  0.42441605  0.80115874  0.10043419     0.07900
H21         H  0.46722868  0.87232202  0.16826138     0.09100
Cu22       Cu  0.42758409  0.83358146  0.00748407     0.44170
Cu23       Cu  0.46075905  0.89371879  0.06906683     0.41990
Cu24       Cu  0.45578372  0.89202070  0.44357828     0.43880
N25         N  0.43290839  0.83665670  0.43412789    -0.34520
N26         N  0.44439039  0.85823872  0.41162256    -0.28780
C27         C  0.45013016  0.85507580  0.36711306    -0.04880
C28         C  0.44161219  0.83030955  0.36097696     0.07340
C29         C  0.43069520  0.81909961  0.40408318     0.01140
H30         H  0.46138641  0.87006829  0.34225275     0.08790
H31         H  0.42432440  0.80035339  0.41449491     0.07870
N32         N  0.46616874  0.92347316  0.48359648    -0.35970
N33         N  0.46837500  0.92427164  0.03025381    -0.28150
C34         C  0.47186135  0.94565936  0.04676627    -0.03390
C35         C  0.47170165  0.95892961  0.00855606     0.05220
C36         C  0.46799008  0.94421817  0.46912351     0.03310
H37         H  0.47166886  0.94990932  0.08406538     0.08420
H38         H  0.46433929  0.94722747  0.43323144     0.07250
N39         N  0.23551402  0.92354905  0.39255318    -0.27130
N40         N  0.21381449  0.91022452  0.41570779    -0.34990
C41         C  0.19668039  0.89243014  0.38637702     0.01210
C42         C  0.20822453  0.89435015  0.34317095     0.07230
C43         C  0.23277508  0.91418052  0.34840908    -0.05870
H44         H  0.17809224  0.87747025  0.39744409     0.07900
H45         H  0.24801782  0.92014002  0.32322082     0.09100
Cu46       Cu  0.20944102  0.91114855  0.98908596     0.44170
Cu47       Cu  0.26965525  0.95074326  0.42242019     0.41990
Cu48       Cu  0.26855416  0.94432269  0.04705912     0.43880
N49         N  0.21322531  0.90829408  0.06165870    -0.34520
N50         N  0.23542449  0.92024908  0.08190594    -0.28780
C51         C  0.23322445  0.91140042  0.12586626    -0.04880
C52         C  0.20840531  0.89305829  0.13413553     0.07340
C53         C  0.19609834  0.89155296  0.09282980     0.01140
H54         H  0.24887027  0.91653671  0.14860688     0.08790
H55         H  0.17682031  0.87755271  0.08423416     0.07870
N56         N  0.30107449  0.96665112  0.00909471    -0.35970
N57         N  0.30197946  0.97042171  0.46296000    -0.28150
C58         C  0.32615942  0.98558438  0.44929016    -0.03390
C59         C  0.34126518  0.99096019  0.98881988     0.05220
C60         C  0.32436926  0.97860167  0.02596695     0.03310
H61         H  0.33200944  0.99163598  0.41304412     0.08420
H62         H  0.32846980  0.97732604  0.06256850     0.07250
N63         N  0.48020723  0.24268714  0.08917714    -0.27130
N64         N  0.49234862  0.26453719  0.06755701    -0.34990
C65         C  0.49438749  0.28189147  0.09790439     0.01210
C66         C  0.48263128  0.27029730  0.14024334     0.07230
C67         C  0.47377471  0.24548010  0.13340351    -0.05870
H68         H  0.50160783  0.30094418  0.08828652     0.07900
H69         H  0.46232734  0.23033085  0.15786013     0.09100
Cu70       Cu  0.49952782  0.26866617  0.99474252     0.44170
Cu71       Cu  0.47037492  0.20942704  0.05665901     0.41990
Cu72       Cu  0.47200566  0.21030467  0.42972874     0.43880
N73         N  0.49327344  0.26531586  0.42191965    -0.34520
N74         N  0.48182266  0.24370326  0.39921518    -0.28780
C75         C  0.47565658  0.24668116  0.35555099    -0.04880
C76         C  0.48395066  0.27138538  0.35014276     0.07340
C77         C  0.49510095  0.28273053  0.39280142     0.01140
H78         H  0.46461288  0.23166237  0.33064284     0.08790
H79         H  0.50164184  0.30154277  0.40357855     0.07870
N80         N  0.46394889  0.17958594  0.46871905    -0.35970
N81         N  0.46328051  0.17924853  0.01566400    -0.28150
C82         C  0.45913594  0.15750752  0.03060434    -0.03390
C83         C  0.45692163  0.14335880  0.99107586     0.05220
C84         C  0.46026881  0.15808992  0.45246228     0.03310
H85         H  0.45897320  0.15285727  0.06754713     0.08420
H86         H  0.46075630  0.15384987  0.41525604     0.07250
N87         N  0.67922481  0.17878025  0.39902189    -0.27130
N88         N  0.70110506  0.18860258  0.42006211    -0.34990
C89         C  0.71943794  0.20467314  0.38989429     0.01210
C90         C  0.70850036  0.20524927  0.34835897     0.07230
C91         C  0.68304028  0.18872040  0.35543651    -0.05870
H92         H  0.73898485  0.21675219  0.39918388     0.07900
H93         H  0.66827186  0.18509920  0.33158468     0.09100
Cu94       Cu  0.70479679  0.18485397  0.99225195     0.44170
Cu95       Cu  0.64471719  0.15442737  0.43134767     0.41990
Cu96       Cu  0.64615298  0.15225157  0.05798818     0.43880
N97         N  0.70228470  0.18730849  0.06569355    -0.34520
N98         N  0.68062699  0.17639334  0.08896744    -0.28780
C99         C  0.68455109  0.18584626  0.13323122    -0.04880
C100        C  0.70991151  0.20323127  0.13842899     0.07340
C101        C  0.72064929  0.20367226  0.09500503     0.01140
H102        H  0.66983511  0.18166028  0.15860136     0.08790
H103        H  0.73985097  0.21685169  0.08392785     0.07870
N104        N  0.61353650  0.13108781  0.01946861    -0.35970
N105        N  0.61287931  0.13186245  0.47261232    -0.28150
C106        C  0.58890252  0.11731509  0.45859628    -0.03390
C107        C  0.57373602  0.10676824  0.99866219     0.05220
C108        C  0.59008275  0.11607688  0.03657794     0.03310
H109        H  0.58284681  0.11551578  0.42219439     0.08420
H110        H  0.58522195  0.11283116  0.07402791     0.07250
C111        C  0.44753571  0.03410965  0.00992978     0.00720
C112        C  0.46615238  0.05904159  0.00418257     0.00720
O113        O  0.23538198  0.53574813  0.30820077    -0.72790
O114        O  0.20639125  0.55610461  0.20722103    -0.73770
O115        O  0.20515373  0.55545745  0.30981219    -0.62390
O116        O  0.23649945  0.53636219  0.20793975    -0.70800
O117        O  0.20177358  0.49829587  0.20609728    -0.70350
O118        O  0.17056155  0.51732098  0.30754335    -0.61610
O119        O  0.17178941  0.51792956  0.20777434    -0.74110
O120        O  0.20062994  0.49767674  0.30834195    -0.72890
Cu121      Cu  0.22205616  0.54731907  0.25835158     1.04560
Cu122      Cu  0.18504991  0.50645665  0.25740134     1.04330
C123        C  0.22244999  0.51356230  0.32432154     0.93410
C124        C  0.18454360  0.54006325  0.19147504     0.92550
C125        C  0.18298969  0.53929464  0.32488524     0.84690
C126        C  0.22385461  0.51436293  0.19066311     0.90970
O127        O  0.15246675  0.81206746  0.18867943    -0.72790
O128        O  0.17641067  0.86470824  0.29067069    -0.73770
O129        O  0.17663949  0.86440806  0.18814272    -0.62390
O130        O  0.15159150  0.81194238  0.28890380    -0.70800
O131        O  0.18874722  0.81678425  0.28996359    -0.70350
O132        O  0.21373542  0.86910788  0.18922391    -0.61610
O133        O  0.21346584  0.86931432  0.28891088    -0.74110
O134        O  0.18971393  0.81705417  0.18771733    -0.72890
Cu135      Cu  0.16297167  0.83816609  0.23917862     1.04560
Cu136      Cu  0.20265720  0.84314474  0.23901612     1.04330
C137        C  0.16753964  0.80664372  0.17176148     0.93410
C138        C  0.19885263  0.87531774  0.30566029     0.92550
C139        C  0.19908790  0.87477144  0.17249284     0.84690
C140        C  0.16620152  0.80618231  0.30536518     0.90970
N141        N  0.14524265  0.54294470  0.10495696    -0.27130
N142        N  0.16697725  0.55523293  0.08191829    -0.34990
C143        C  0.18492826  0.55800028  0.11086398     0.01210
C144        C  0.17374462  0.54662830  0.15374100     0.07230
C145        C  0.14863367  0.53721609  0.14864372    -0.05870
H146        H  0.20408256  0.56543441  0.09992429     0.07900
H147        H  0.13368702  0.52579852  0.17382133     0.09100
Cu148      Cu  0.16974117  0.56162197  0.00911346     0.44170
Cu149      Cu  0.11136537  0.53188680  0.07526554     0.41990
Cu150      Cu  0.10937407  0.53003576  0.44881306     0.43880
N151        N  0.16534545  0.55445949  0.43647032    -0.34520
N152        N  0.14329967  0.54139710  0.41548531    -0.28780
C153        C  0.14650434  0.53541969  0.37118449    -0.04880
C154        C  0.17175075  0.54550383  0.36369503     0.07340
C155        C  0.18317040  0.55752671  0.40567978     0.01140
H156        H  0.13140420  0.52345454  0.34713673     0.08790
H157        H  0.20254815  0.56562127  0.41484194     0.07870
N158        N  0.07973623  0.52422396  0.49133324    -0.35970
N159        N  0.08070388  0.52518876  0.03826669    -0.28150
C160        C  0.06118903  0.52546951  0.05576157    -0.03390
C161        C  0.04728324  0.52476210  0.01800942     0.05220
C162        C  0.05942199  0.52370300  0.47768936     0.03310
H163        H  0.05884247  0.52867054  0.09276249     0.08420
H164        H  0.05515923  0.52488604  0.44110492     0.07250
N165        N  0.13106987  0.75797480  0.39373845    -0.27130
N166        N  0.15300827  0.77191248  0.41496330    -0.34990
C167        C  0.16933261  0.79003950  0.38504570     0.01210
C168        C  0.15704270  0.78771356  0.34347926     0.07230
C169        C  0.13283830  0.76731264  0.35018565    -0.05870
H170        H  0.18802097  0.80518637  0.39459681     0.07900
H171        H  0.11735256  0.76039572  0.32598987     0.09100
Cu172      Cu  0.15900127  0.77084108  0.98701179     0.44170
Cu173      Cu  0.09879944  0.72779714  0.42483208     0.41990
Cu174      Cu  0.10407534  0.72845243  0.05112103     0.43880
N175        N  0.15587106  0.77358330  0.06010034    -0.34520
N176        N  0.13454673  0.75855363  0.08301737    -0.28780
C177        C  0.13586927  0.76733001  0.12718991    -0.04880
C178        C  0.15938877  0.78871087  0.13266928     0.07340
C179        C  0.17167676  0.79220341  0.08955933     0.01140
H180        H  0.12048022  0.75936951  0.15257546     0.08790
H181        H  0.18975989  0.80824331  0.07904147     0.07870
N182        N  0.07571566  0.69882832  0.01410675    -0.35970
N183        N  0.07255870  0.69837325  0.46781617    -0.28150
C184        C  0.05239194  0.67584045  0.45584050    -0.03390
C185        C  0.04286223  0.66111051  0.99668144     0.05220
C186        C  0.05834604  0.67674114  0.03268638     0.03310
H187        H  0.04569806  0.67068510  0.41984608     0.08420
H188        H  0.05797967  0.67236696  0.06978823     0.07250
N189        N  0.80285678  0.33973879  0.39433068    -0.27130
N190        N  0.78135604  0.32704957  0.41815502    -0.34990
C191        C  0.76366138  0.30943855  0.38947200     0.01210
C192        C  0.77463767  0.31086487  0.34586544     0.07230
C193        C  0.79950941  0.33011952  0.35021795    -0.05870
H194        H  0.74486182  0.29514554  0.40093045     0.07900
H195        H  0.81429491  0.33600399  0.32400303     0.09100
Cu196      Cu  0.77824843  0.32928167  0.99137936     0.44170
Cu197      Cu  0.83621178  0.36822640  0.42395286     0.41990
Cu198      Cu  0.83760202  0.36286565  0.05057681     0.43880
N199        N  0.78230560  0.32501256  0.06299696    -0.34520
N200        N  0.80439705  0.33573233  0.08350498    -0.28780
C201        C  0.80131790  0.32590731  0.12704294    -0.04880
C202        C  0.77603841  0.30850690  0.13451326     0.07340
C203        C  0.76450721  0.30842648  0.09330816     0.01140
H204        H  0.81642087  0.33062445  0.15096448     0.08790
H205        H  0.74494447  0.29585183  0.08455290     0.07870
N206        N  0.86541811  0.39326017  0.01226674    -0.35970
N207        N  0.86484314  0.39567690  0.46579117    -0.28150
C208        C  0.88265889  0.41928631  0.45350817    -0.03390
C209        C  0.89505511  0.43234966  0.99428787     0.05220
C210        C  0.88358422  0.41514488  0.03072400     0.03310
H211        H  0.88468255  0.42700528  0.41845587     0.08420
H212        H  0.88656401  0.41892748  0.06849245     0.07250
N213        N  0.78733576  0.56098914  0.08859221    -0.27130
N214        N  0.76579007  0.55072480  0.06626890    -0.34990
C215        C  0.74866973  0.54980371  0.09625263     0.01210
C216        C  0.76023347  0.56029027  0.13911590     0.07230
C217        C  0.78472451  0.56730039  0.13291762    -0.05870
H218        H  0.73004303  0.54429538  0.08613826     0.07900
H219        H  0.79987902  0.57746629  0.15786866     0.09100
Cu220      Cu  0.76313891  0.54498259  0.99320424     0.44170
Cu221      Cu  0.81983401  0.56832070  0.05623994     0.41990
Cu222      Cu  0.82351873  0.57241817  0.42928070     0.43880
N223        N  0.76839375  0.55289596  0.42093913    -0.34520
N224        N  0.79046965  0.56464006  0.39891948    -0.28780
C225        C  0.78796611  0.57139102  0.35535398    -0.04880
C226        C  0.76312051  0.56311092  0.34943802     0.07340
C227        C  0.75123414  0.55141532  0.39155319     0.01140
H228        H  0.80328446  0.58237403  0.33056724     0.08790
H229        H  0.73208221  0.54443344  0.40171597     0.07870
N230        N  0.85091971  0.57357629  0.47019857    -0.35970
N231        N  0.84892789  0.57153643  0.01697076    -0.28150
C232        C  0.86707724  0.56927202  0.03353135    -0.03390
C233        C  0.88140681  0.56980503  0.99548901     0.05220
C234        C  0.87076282  0.57297000  0.45575465     0.03310
H235        H  0.86864645  0.56583442  0.07048522     0.08420
H236        H  0.87627349  0.57376850  0.41892161     0.07250
C237        C  0.97635518  0.55497701  0.02620310     0.00720
C238        C  0.95076293  0.53964310  0.02116102     0.00720
O239        O  0.43246601  0.29626789  0.29956048    -0.72790
O240        O  0.45357681  0.26754046  0.19695967    -0.73770
O241        O  0.45424717  0.26820179  0.29678552    -0.62390
O242        O  0.43174740  0.29557752  0.19726980    -0.70800
O243        O  0.46931922  0.33105273  0.19680362    -0.70350
O244        O  0.49191643  0.30354940  0.29675977    -0.61610
O245        O  0.49122084  0.30288136  0.19413151    -0.74110
O246        O  0.47002277  0.33173515  0.29708465    -0.72890
Cu247      Cu  0.44166997  0.28073094  0.24771046     1.04560
Cu248      Cu  0.48200301  0.31852940  0.24613425     1.04330
C249        C  0.44794687  0.31836680  0.31476970     0.93410
C250        C  0.47563278  0.28073202  0.17917894     0.92550
C251        C  0.47650741  0.28156054  0.31261309     0.84690
C252        C  0.44703316  0.31749233  0.18107926     0.90970
O253        O  0.72862500  0.55310976  0.19499695    -0.72790
O254        O  0.70231686  0.57662623  0.29821292    -0.73770
O255        O  0.70076318  0.57528256  0.19815210    -0.62390
O256        O  0.73028392  0.55456899  0.29740522    -0.70800
O257        O  0.76602474  0.59180142  0.29366031    -0.70350
O258        O  0.73657926  0.61246161  0.19462404    -0.61610
O259        O  0.73813191  0.61387234  0.29692552    -0.74110
O260        O  0.76441847  0.59037519  0.19379997    -0.72890
Cu261      Cu  0.71427518  0.56353744  0.24730234     1.04560
Cu262      Cu  0.75248784  0.60346668  0.24465183     1.04330
C263        C  0.75061772  0.56816119  0.17797732     0.93410
C264        C  0.71614536  0.59884803  0.31399413     0.92550
C265        C  0.71420378  0.59709652  0.18046925     0.84690
C266        C  0.75269329  0.57000618  0.31139526     0.90970
O267        O  0.49444999  0.80654901  0.30739912    -0.72790
O268        O  0.47352005  0.83494420  0.20727262    -0.73770
O269        O  0.47192858  0.83389529  0.30688179    -0.62390
O270        O  0.49614761  0.80784608  0.20528784    -0.70800
O271        O  0.45885876  0.77203606  0.20430423    -0.70350
O272        O  0.43448542  0.79828065  0.30670012    -0.61610
O273        O  0.43611765  0.79936157  0.20404729    -0.74110
O274        O  0.45721321  0.77075381  0.30468050    -0.72890
Cu275      Cu  0.48532454  0.82197185  0.25681048     1.04560
Cu276      Cu  0.44528081  0.78384672  0.25488923     1.04330
C277        C  0.47912531  0.78431654  0.32207937     0.93410
C278        C  0.45167459  0.82161397  0.18960891     0.92550
C279        C  0.44953547  0.82029185  0.32288173     0.84690
C280        C  0.48125993  0.78602425  0.18838269     0.90970
N281        N  0.25958614  0.50640578  0.41025387    -0.27130
N282        N  0.23812245  0.49644204  0.43388016    -0.34990
C283        C  0.22111811  0.49598176  0.40558920     0.01210
C284        C  0.23262983  0.50652818  0.36248276     0.07230
C285        C  0.25703013  0.51311091  0.36671797    -0.05870
H286        H  0.20250876  0.49045092  0.41695208     0.07900
H287        H  0.27204511  0.52285320  0.34077580     0.09100
Cu288      Cu  0.23506530  0.49008737  0.00657270     0.44170
Cu289      Cu  0.29171544  0.51213256  0.43995177     0.41990
Cu290      Cu  0.29441155  0.51618022  0.06769717     0.43880
N291        N  0.23979938  0.49764152  0.07894593    -0.34520
N292        N  0.26175826  0.50906523  0.10024282    -0.28780
C293        C  0.25926298  0.51584456  0.14434484    -0.04880
C294        C  0.23448208  0.50782564  0.15133444     0.07340
C295        C  0.22265937  0.49632665  0.10932281     0.01140
H296        H  0.27452385  0.52655642  0.16885602     0.08790
H297        H  0.20356856  0.48952906  0.10004548     0.07870
N298        N  0.32255556  0.51864967  0.02537818    -0.35970
N299        N  0.32114406  0.51655099  0.47855245    -0.28150
C300        C  0.34204028  0.51896381  0.46117201    -0.03390
C301        C  0.35769217  0.52328907  0.99877708     0.05220
C302        C  0.34455650  0.52267084  0.03904159     0.03310
H303        H  0.34574316  0.51820389  0.42372141     0.08420
H304        H  0.35089320  0.52580167  0.07546380     0.07250
N305        N  0.48804186  0.74884430  0.40956327    -0.27130
N306        N  0.49810663  0.77056191  0.43158383    -0.34990
C307        C  0.49770698  0.78676291  0.40252476     0.01210
C308        C  0.48646840  0.77458081  0.36062021     0.07230
C309        C  0.48040149  0.75054155  0.36626896    -0.05870
H310        H  0.50333089  0.80540662  0.41261466     0.07900
H311        H  0.47065434  0.73527135  0.34125206     0.09100
Cu312      Cu  0.50634460  0.77603022  0.00344857     0.44170
Cu313      Cu  0.48444875  0.71770998  0.44004866     0.41990
Cu314      Cu  0.48937875  0.72140147  0.06779640     0.43880
N315        N  0.50050295  0.77291241  0.07648002    -0.34520
N316        N  0.49229387  0.75192482  0.09945160    -0.28780
C317        C  0.48517577  0.75371039  0.14374906    -0.04880
C318        C  0.48967472  0.77717295  0.14913955     0.07340
C319        C  0.49939843  0.78890157  0.10593909     0.01140
H320        H  0.47650444  0.73873467  0.16942061     0.08790
H321        H  0.50321242  0.80679424  0.09540424     0.07870
N322        N  0.48813357  0.69369046  0.02782869    -0.35970
N323        N  0.48578316  0.69179191  0.48109585    -0.28150
C324        C  0.48442712  0.67105715  0.46674767    -0.03390
C325        C  0.48584404  0.65932908  0.00649884     0.05220
C326        C  0.48855782  0.67448217  0.04443793     0.03310
H327        H  0.48177557  0.66456331  0.43028364     0.08420
H328        H  0.49020189  0.67156383  0.08164934     0.07250
N329        N  0.43968489  0.35441572  0.40431835    -0.27130
N330        N  0.42958729  0.33282710  0.42639772    -0.34990
C331        C  0.42961577  0.31634376  0.39662235     0.01210
C332        C  0.44062878  0.32823708  0.35416437     0.07230
C333        C  0.44697377  0.35237944  0.36027808    -0.05870
H334        H  0.42398670  0.29774444  0.40650511     0.07900
H335        H  0.45676204  0.36751863  0.33509636     0.09100
Cu336      Cu  0.42199600  0.32811573  0.99890247     0.44170
Cu337      Cu  0.44396221  0.38587779  0.43572877     0.41990
Cu338      Cu  0.44215533  0.38423198  0.06390197     0.43880
N339        N  0.42853132  0.33167804  0.07147081    -0.34520
N340        N  0.43793189  0.35301116  0.09448493    -0.28780
C341        C  0.44498865  0.35094304  0.13804534    -0.04880
C342        C  0.43923889  0.32699431  0.14291503     0.07340
C343        C  0.42880744  0.31525776  0.10015698     0.01140
H344        H  0.45440754  0.36600097  0.16357944     0.08790
H345        H  0.42389281  0.29693818  0.08924263     0.07870
N346        N  0.44288681  0.41164642  0.02465333    -0.35970
N347        N  0.44357834  0.41243579  0.47764465    -0.28150
C348        C  0.44435704  0.43277242  0.46354823    -0.03390
C349        C  0.44395460  0.44525844  0.00370379     0.05220
C350        C  0.44322763  0.43139243  0.04171338     0.03310
H351        H  0.44608449  0.43855792  0.42690684     0.08420
H352        H  0.44359666  0.43570608  0.07914177     0.07250
N353        N  0.67994789  0.60706791  0.40317396    -0.27130
N354        N  0.70141081  0.61680205  0.42560269    -0.34990
C355        C  0.71827618  0.61714668  0.39578691     0.01210
C356        C  0.70665310  0.60681057  0.35293228     0.07230
C357        C  0.68236330  0.60046994  0.35893837    -0.05870
H358        H  0.73675960  0.62223964  0.40598709     0.07900
H359        H  0.66721902  0.59067876  0.33384355     0.09100
Cu360      Cu  0.70440754  0.62272230  0.99858185     0.44170
Cu361      Cu  0.64775725  0.60090739  0.43518946     0.41990
Cu362      Cu  0.64507801  0.59817834  0.06276842     0.43880
N363        N  0.69931827  0.61497057  0.07086737    -0.34520
N364        N  0.67738060  0.60416628  0.09319360    -0.28780
C365        C  0.67953622  0.59705151  0.13668519    -0.04880
C366        C  0.70407785  0.60420314  0.14221979     0.07340
C367        C  0.71610461  0.61555274  0.09997014     0.01140
H368        H  0.66419160  0.58670368  0.16174802     0.08790
H369        H  0.73503911  0.62176446  0.08960973     0.07870
N370        N  0.61704067  0.59573246  0.02182402    -0.35970
N371        N  0.61832778  0.59687592  0.47488430    -0.28150
C372        C  0.59744452  0.59418954  0.45819539    -0.03390
C373        C  0.58218603  0.59134847  0.99641063     0.05220
C374        C  0.59515760  0.59225251  0.03628998     0.03310
H375        H  0.59337529  0.59365551  0.42080403     0.08420
H376        H  0.58872312  0.58954284  0.07291254     0.07250
C377        C  0.47593129  0.54846841  0.00079115     0.00720
C378        C  0.46244860  0.55917356  0.00145962     0.00720
C379        C  0.54063046  0.56690044  0.45918701    -0.12110
C380        C  0.55589555  0.58416003  0.99411000     0.04890
C381        C  0.54529724  0.59251704  0.02754320    -0.07400
C382        C  0.51932362  0.58198571  0.02703245    -0.08140
C383        C  0.50378201  0.56347518  0.99381416    -0.02700
C384        C  0.51483242  0.55647599  0.45842275     0.04120
N385        N  0.50010899  0.53812635  0.42254742     0.66630
H386        H  0.54869981  0.56066956  0.43314705     0.15530
H387        H  0.51103293  0.58742839  0.05414999     0.15240
N388        N  0.56047632  0.61155413  0.06194752     0.74330
O389        O  0.48253536  0.53793273  0.40242244    -0.39120
O390        O  0.50624938  0.52364272  0.90738491    -0.39060
O391        O  0.58205161  0.62982362  0.55056589    -0.39770
O392        O  0.55130734  0.61172992  0.10196176    -0.39830
C393        C  0.44513572  0.50375621  0.97604800    -0.12110
C394        C  0.46404367  0.52099508  0.00696269     0.04890
C395        C  0.47423334  0.51228897  0.53950004    -0.07400
C396        C  0.46647934  0.48733960  0.53834443    -0.08140
C397        C  0.44851471  0.47041953  0.00616220    -0.02700
C398        C  0.43690146  0.47843276  0.97566474     0.04120
N399        N  0.41667951  0.46129291  0.94489957     0.66630
H400        H  0.43734509  0.51020717  0.95084987     0.15530
H401        H  0.47521114  0.48125465  0.56216405     0.15240
N402        N  0.49309547  0.52861439  0.57305427     0.74330
O403        O  0.41168680  0.46920485  0.90878650    -0.39120
O404        O  0.40170987  0.43885060  0.45692342    -0.39060
O405        O  0.48986902  0.54254471  0.09968137    -0.39770
O406        O  0.51146557  0.52684549  0.58039513    -0.39830
C407        C  0.49271130  0.62784511  0.47113640    -0.12110
C408        C  0.48278246  0.63479124  0.00829052     0.04890
C409        C  0.46944446  0.61784558  0.04575081    -0.07400
C410        C  0.46600753  0.59446963  0.04458529    -0.08140
C411        C  0.47405265  0.58663528  0.00567076    -0.02700
C412        C  0.48817024  0.60385829  0.46891376     0.04120
N413        N  0.49680499  0.59711257  0.42795263     0.66630
H414        H  0.50312583  0.64078110  0.44244522     0.15530
H415        H  0.45473354  0.58137093  0.07243623     0.15240
N416        N  0.45690282  0.62278531  0.08254314     0.74330
O417        O  0.48129029  0.57930376  0.40180027    -0.39120
O418        O  0.51900772  0.61167294  0.41302513    -0.39060
O419        O  0.44155053  0.62838393  0.57155126    -0.39770
O420        O  0.45740291  0.61692954  0.12502320    -0.39830
C421        C  0.39257765  0.52190220  0.03319619    -0.12110
C422        C  0.38378681  0.52971329  0.99649295     0.04890
C423        C  0.40037912  0.54431795  0.45921003    -0.07400
C424        C  0.42508918  0.55082538  0.45979137    -0.08140
C425        C  0.43452536  0.54476489  0.99813413    -0.02700
C426        C  0.41786130  0.52964714  0.03511164     0.04120
N427        N  0.42623871  0.52304234  0.07581638     0.66630
H428        H  0.37993107  0.51064234  0.06183413     0.15530
H429        H  0.43771398  0.56288363  0.43196906     0.15240
N430        N  0.39349695  0.55508897  0.42332708     0.74330
O431        O  0.44559076  0.53940685  0.09761425    -0.39120
O432        O  0.41234795  0.50174572  0.09419472    -0.39060
O433        O  0.38532856  0.56831623  0.93544341    -0.39770
O434        O  0.40013722  0.55554658  0.38059469    -0.39830
C435        C  0.91471280  0.57075944  0.04130099    -0.12110
C436        C  0.90146071  0.56481023  0.99856042     0.04890
C437        C  0.90641023  0.55267188  0.46218290    -0.07400
C438        C  0.92365363  0.54616744  0.47011338    -0.08140
C439        C  0.93540653  0.55039524  0.01419904    -0.02700
C440        C  0.93104578  0.56318465  0.05041036     0.04120
N441        N  0.94123643  0.56709664  0.09745671     0.66630
H442        H  0.91129092  0.58033132  0.06912284     0.15530
H443        H  0.92688769  0.53640346  0.44233559     0.15240
N444        N  0.89283423  0.54494576  0.41854729     0.74330
O445        O  0.94322018  0.58415317  0.12366799    -0.39120
O446        O  0.94492373  0.55160128  0.11560115    -0.39060
O447        O  0.90459017  0.54978343  0.37943414    -0.39770
O448        O  0.86945399  0.52916761  0.41942174    -0.39830
C449        C  0.94407273  0.50197312  0.97776970    -0.12110
C450        C  0.93689360  0.51198901  0.01437805     0.04890
C451        C  0.91560003  0.49550876  0.54261404    -0.07400
C452        C  0.90315114  0.46987251  0.03591129    -0.08140
C453        C  0.91059796  0.45976625  0.00038205    -0.02700
C454        C  0.93131747  0.47601467  0.97054212     0.04120
N455        N  0.94005333  0.46667167  0.93389619     0.66630
H456        H  0.95992454  0.51449121  0.95511277     0.15410
H457        H  0.88686895  0.45772956  0.55802280     0.15240
N458        N  0.90616884  0.50423431  0.57859337     0.74330
O459        O  0.95141908  0.47972599  0.39765323    -0.39120
O460        O  0.93891991  0.44667039  0.93982784    -0.39060
O461        O  0.89032707  0.50909558  0.56718825    -0.39770
O462        O  0.90733520  0.49955491  0.12160982    -0.39830
C463        C  0.99340715  0.59180446  0.47371511    -0.12110
C464        C  0.98863220  0.58247971  0.02038497     0.04890
C465        C  0.99958304  0.59940112  0.05873863    -0.07400
C466        C  0.01461306  0.62495246  0.04920703    -0.08140
C467        C  0.02238933  0.63414704  0.00259228    -0.02700
C468        C  0.01162760  0.61699000  0.46426906     0.04120
N469        N  0.02131045  0.62366060  0.41666729     0.66630
H470        H  0.98580033  0.57874218  0.44421627     0.15530
H471        H  0.02186758  0.63748984  0.07926770     0.15240
N472        N  0.99700290  0.59129544  0.10721407     0.74330
O473        O  0.00634405  0.61684758  0.38242305    -0.39120
O474        O  0.04361719  0.63031202  0.40817968    -0.39060
O475        O  0.99914865  0.57352968  0.11727429    -0.39770
O476        O  0.99675513  0.60439650  0.64072021    -0.39830
C477        C  0.00621251  0.51692783  0.54441182    -0.12110
C478        C  0.02907437  0.53197185  0.02016090     0.04890
C479        C  0.03552543  0.55519113  0.00304678    -0.07400
C480        C  0.01801306  0.56157853  0.00538722    -0.08140
C481        C  0.99417338  0.54622428  0.02734281    -0.02700
C482        C  0.98920513  0.52424635  0.55033099     0.04120
N483        N  0.96849160  0.51025673  0.58276479     0.66630
H484        H  0.00220839  0.49997873  0.56099569     0.15530
H485        H  0.02392371  0.57927612  0.98998352     0.15240
N486        N  0.06053594  0.57360647  0.98731241     0.74330
O487        O  0.95812263  0.48703358  0.58669585    -0.39120
O488        O  0.96330644  0.52142785  0.11298223    -0.39060
O489        O  0.06855443  0.57102297  0.44782974    -0.39770
O490        O  0.07260464  0.59446958  0.00811329    -0.39830
C491        C  0.53485510  0.09825499  0.03773800    -0.12110
C492        C  0.54599305  0.09229101  0.00140076     0.04890
C493        C  0.53055920  0.07370164  0.46767988    -0.07400
C494        C  0.50450157  0.06257903  0.46994551    -0.08140
C495        C  0.49347108  0.06913009  0.00562374    -0.02700
C496        C  0.50887013  0.08678328  0.04060382     0.04120
N497        N  0.49840976  0.09290675  0.07970399     0.66630
H498        H  0.54652719  0.11222338  0.06402504     0.15530
H499        H  0.49261665  0.04856059  0.44391909     0.15240
N500        N  0.54077005  0.06540825  0.43200113     0.74330
O501        O  0.51017478  0.11474078  0.09650116    -0.39120
O502        O  0.47923142  0.07589775  0.10162468    -0.39060
O503        O  0.55810196  0.06247041  0.44230229    -0.39770
O504        O  0.53029360  0.05781484  0.39213292    -0.39830
C505        C  0.44612238  0.08187641  0.53008790    -0.12110
C506        C  0.46036523  0.07846607  0.99621461     0.04890
C507        C  0.47150595  0.09550237  0.95799711    -0.07400
C508        C  0.46950862  0.11609518  0.95641345    -0.08140
C509        C  0.45552816  0.11957971  0.99070453    -0.02700
C510        C  0.44238119  0.10132490  0.52640403     0.04120
N511        N  0.42446720  0.10169385  0.05754787     0.66630
H512        H  0.43808547  0.06954185  0.56015737     0.15530
H513        H  0.47930071  0.12968858  0.92835237     0.15240
N514        N  0.48498933  0.09223684  0.92063623     0.74330
O515        O  0.41943445  0.09130632  0.59794602    -0.39120
O516        O  0.41093601  0.10874928  0.04217613    -0.39060
O517        O  0.47483229  0.07156564  0.39903771    -0.39770
O518        O  0.50543081  0.11070156  0.90502493    -0.39830
C519        C  0.37985228  0.01182320  0.03794631    -0.12110
C520        C  0.36916926  0.00487988  0.99234034     0.04890
C521        C  0.38533507  0.01031855  0.45256574    -0.07400
C522        C  0.41120866  0.02250458  0.45947995    -0.08140
C523        C  0.42103917  0.02643754  0.00536563    -0.02700
C524        C  0.40521137  0.02125968  0.04540716     0.04120
N525        N  0.41420481  0.02512279  0.09358859     0.66630
H526        H  0.36815703  0.00865545  0.06875552     0.15530
H527        H  0.42335950  0.02616004  0.42899593     0.15240
N528        N  0.37585865  0.00096295  0.40595604     0.74330
O529        O  0.40318985  0.02910275  0.12658932    -0.39120
O530        O  0.43216451  0.02322217  0.10414472    -0.39060
O531        O  0.38581008  0.01510746  0.37041652    -0.39770
O532        O  0.36209158  0.97763087  0.89939027    -0.39830
C533        C  0.44351995  0.97246119  0.49397997    -0.12110
C534        C  0.46646132  0.97854562  0.01124217     0.04890
C535        C  0.48202629  0.00158357  0.03471259    -0.07400
C536        C  0.47413167  0.01814678  0.03845647    -0.08140
C537        C  0.45236408  0.01347025  0.01569742    -0.02700
C538        C  0.43585545  0.98890974  0.49734580     0.04120
N539        N  0.41019827  0.97883402  0.48674222     0.66630
H540        H  0.43059842  0.95397684  0.47961078     0.15530
H541        H  0.48545148  0.03500933  0.05882339     0.15240
N542        N  0.50612174  0.00892996  0.05302676     0.74330
O543        O  0.40229796  0.97029915  0.44559121    -0.39120
O544        O  0.39456530  0.97132632  0.02138875    -0.39060
O545        O  0.51825327  0.00061629  0.53488809    -0.39770
O546        O  0.51681065  0.02609637  0.08368121    -0.39830
O547        O  0.77590624  0.28164847  0.69148009    -0.72790
O548        O  0.74241341  0.23007552  0.79454284    -0.73770
O549        O  0.74313376  0.22897707  0.69192590    -0.62390
O550        O  0.77521821  0.28277218  0.79175626    -0.70800
O551        O  0.74194664  0.28526300  0.79177399    -0.70350
O552        O  0.70997444  0.23165027  0.69229952    -0.61610
O553        O  0.70926372  0.23270326  0.79222300    -0.74110
O554        O  0.74266152  0.28413081  0.68935628    -0.72890
Cu555      Cu  0.76029942  0.25569899  0.74248473     1.04560
Cu556      Cu  0.72487106  0.25862587  0.74138145     1.04330
C557        C  0.76439189  0.29076886  0.67390309     0.93410
C558        C  0.72061861  0.22340093  0.80971019     0.92550
C559        C  0.72155927  0.22202241  0.67623035     0.84690
C560        C  0.76348913  0.29228634  0.80768110     0.90970
N561        N  0.44886309  0.86006445  0.60085265    -0.27130
N562        N  0.43557405  0.83805867  0.57970608    -0.34990
C563        C  0.43267527  0.82051609  0.60986348     0.01210
C564        C  0.44501275  0.83217443  0.65151412     0.07230
C565        C  0.45506412  0.85716863  0.64450038    -0.05870
H566        H  0.42443658  0.80118370  0.60042816     0.07900
H567        H  0.46726203  0.87233718  0.66828724     0.09100
Cu568      Cu  0.42762904  0.83362305  0.50748923     0.44170
Cu569      Cu  0.46082000  0.89375507  0.56909958     0.41990
Cu570      Cu  0.45567403  0.89196739  0.94355032     0.43880
N571        N  0.43285746  0.83661279  0.93412066    -0.34520
N572        N  0.44431688  0.85819148  0.91160664    -0.28780
C573        C  0.45006430  0.85503370  0.86709935    -0.04880
C574        C  0.44157353  0.83027381  0.86097338     0.07340
C575        C  0.43066571  0.81906267  0.90408351     0.01140
H576        H  0.46130732  0.87002717  0.84223338     0.08790
H577        H  0.42431648  0.80032319  0.91450295     0.07870
N578        N  0.46605755  0.92342043  0.98356777    -0.35970
N579        N  0.46846140  0.92431652  0.53028768    -0.28150
C580        C  0.47193535  0.94569977  0.54679549    -0.03390
C581        C  0.47179274  0.95897497  0.50857617     0.05220
C582        C  0.46787260  0.94416405  0.96910398     0.03310
H583        H  0.47171856  0.94994082  0.58409205     0.08420
H584        H  0.46420690  0.94717010  0.93322143     0.07250
N585        N  0.23548192  0.92354268  0.89255000    -0.27130
N586        N  0.21378271  0.91021286  0.91570381    -0.34990
C587        C  0.19665183  0.89241700  0.88637073     0.01210
C588        C  0.20819809  0.89434226  0.84316428     0.07230
C589        C  0.23274618  0.91417672  0.84840475    -0.05870
H590        H  0.17806539  0.87745286  0.89743636     0.07900
H591        H  0.24799028  0.92014027  0.82321792     0.09100
Cu592      Cu  0.20947445  0.91116211  0.48908905     0.44170
Cu593      Cu  0.26962124  0.95073949  0.92241598     0.41990
Cu594      Cu  0.26858863  0.94430382  0.54705856     0.43880
N595        N  0.21325624  0.90829736  0.56165798    -0.34520
N596        N  0.23545562  0.92023927  0.58190324    -0.28780
C597        C  0.23325045  0.91138630  0.62586116    -0.04880
C598        C  0.20842782  0.89305456  0.63413031     0.07340
C599        C  0.19612412  0.89156022  0.59282748     0.01140
H600        H  0.24889395  0.91651277  0.64860064     0.08790
H601        H  0.17684310  0.87756981  0.58423266     0.07870
N602        N  0.30110845  0.96664057  0.50909928    -0.35970
N603        N  0.30194606  0.97042175  0.96295088    -0.28150
C604        C  0.32612648  0.98557620  0.94927682    -0.03390
C605        C  0.34129934  0.99096261  0.48883008     0.05220
C606        C  0.32440319  0.97859183  0.52597180     0.03310
H607        H  0.33197884  0.99161769  0.91302658     0.08420
H608        H  0.32850294  0.97730911  0.56256988     0.07250
N609        N  0.48020281  0.24267959  0.58918492    -0.27130
N610        N  0.49234680  0.26452759  0.56755799    -0.34990
C611        C  0.49438412  0.28188494  0.59789465     0.01210
C612        C  0.48262398  0.27029441  0.64023360     0.07230
C613        C  0.47376686  0.24547642  0.63340505    -0.05870
H614        H  0.50160658  0.30093706  0.58826889     0.07900
H615        H  0.46231762  0.23032938  0.65786502     0.09100
Cu616      Cu  0.49952873  0.26864614  0.49474532     0.44170
Cu617      Cu  0.47037413  0.20941894  0.55667930     0.41990
Cu618      Cu  0.47203578  0.21033689  0.92971161     0.43880
N619        N  0.49328202  0.26534224  0.92191245    -0.34520
N620        N  0.48184380  0.24373185  0.89920184    -0.28780
C621        C  0.47568044  0.24670773  0.85553388    -0.04880
C622        C  0.48396364  0.27140892  0.85012837     0.07340
C623        C  0.49510420  0.28275427  0.89279365     0.01140
H624        H  0.46464485  0.23168873  0.83062126     0.08790
H625        H  0.50163422  0.30156348  0.90357323     0.07870
N626        N  0.46396593  0.17960997  0.96868303    -0.35970
N627        N  0.46328143  0.17923755  0.51570036    -0.28150
C628        C  0.45915316  0.15750542  0.53065585    -0.03390
C629        C  0.45692759  0.14334609  0.49113629     0.05220
C630        C  0.46028505  0.15811589  0.95241130     0.03310
H631        H  0.45901041  0.15287078  0.56759720     0.08420
H632        H  0.46078545  0.15388542  0.91520715     0.07250
N633        N  0.67919203  0.17878388  0.89902509    -0.27130
N634        N  0.70107125  0.18859701  0.92006436    -0.34990
C635        C  0.71940729  0.20466522  0.88989926     0.01210
C636        C  0.70847347  0.20525004  0.84836623     0.07230
C637        C  0.68301183  0.18872813  0.85544225    -0.05870
H638        H  0.73895488  0.21673677  0.89918938     0.07900
H639        H  0.66824584  0.18511387  0.83159059     0.09100
Cu640      Cu  0.70483237  0.18486608  0.49225274     0.44170
Cu641      Cu  0.64468181  0.15443569  0.93135093     0.41990
Cu642      Cu  0.64618460  0.15224173  0.55798127     0.43880
N643        N  0.70231438  0.18731387  0.56569554    -0.34520
N644        N  0.68065512  0.17638929  0.58896591    -0.28780
C645        C  0.68457318  0.18583835  0.63323207    -0.04880
C646        C  0.70993137  0.20323069  0.63843569     0.07340
C647        C  0.72067417  0.20368024  0.59501229     0.01140
H648        H  0.66985388  0.18164520  0.65859940     0.08790
H649        H  0.73987491  0.21686696  0.58393921     0.07870
N650        N  0.61356930  0.13107861  0.51945966    -0.35970
N651        N  0.61284483  0.13187070  0.97262122    -0.28150
C652        C  0.58886757  0.11732025  0.95860839    -0.03390
C653        C  0.57376938  0.10676410  0.49864815     0.05220
C654        C  0.59011471  0.11606995  0.53656618     0.03310
H655        H  0.58281032  0.11551861  0.92220705     0.08420
H656        H  0.58525245  0.11282482  0.57401568     0.07250
C657        C  0.44757404  0.03411473  0.50989027     0.00720
C658        C  0.46618614  0.05904643  0.50417641     0.00720
O659        O  0.23538363  0.53575166  0.80819319    -0.72790
O660        O  0.20638774  0.55610230  0.70721306    -0.73770
O661        O  0.20515600  0.55546144  0.80980434    -0.62390
O662        O  0.23649596  0.53635972  0.70793213    -0.70800
O663        O  0.20177000  0.49829329  0.70609884    -0.70350
O664        O  0.17056341  0.51732501  0.80754480    -0.61610
O665        O  0.17178591  0.51792728  0.70777571    -0.74110
O666        O  0.20063130  0.49768044  0.80834371    -0.72890
Cu667      Cu  0.22205541  0.54731976  0.75834334     1.04560
Cu668      Cu  0.18504893  0.50645736  0.75740312     1.04330
C669        C  0.22245211  0.51356684  0.82431903     0.93410
C670        C  0.18453917  0.54006006  0.69147200     0.92550
C671        C  0.18299272  0.53929964  0.82488225     0.84690
C672        C  0.22385043  0.51435939  0.69066054     0.90970
O673        O  0.15247577  0.81206295  0.68865645    -0.72790
O674        O  0.17639551  0.86470104  0.79064636    -0.73770
O675        O  0.17664903  0.86440380  0.68811830    -0.62390
O676        O  0.15157772  0.81193570  0.78888148    -0.70800
O677        O  0.18873334  0.81677836  0.78997832    -0.70350
O678        O  0.21374384  0.86910232  0.68923768    -0.61610
O679        O  0.21345091  0.86930732  0.78892404    -0.74110
O680        O  0.18972262  0.81704903  0.68773269    -0.72890
Cu681      Cu  0.16296895  0.83816034  0.73915347     1.04560
Cu682      Cu  0.20265419  0.84313882  0.73903167     1.04330
C683        C  0.16755201  0.80663913  0.67175814     0.93410
C684        C  0.19883397  0.87531019  0.80565462     0.92550
C685        C  0.19910083  0.87476698  0.67248758     0.84690
C686        C  0.16618476  0.80617647  0.80536274     0.90970
N687        N  0.14523401  0.54293621  0.60495603    -0.27130
N688        N  0.16696850  0.55522684  0.58191722    -0.34990
C689        C  0.18492068  0.55799619  0.61086201     0.01210
C690        C  0.17373800  0.54662297  0.65373862     0.07230
C691        C  0.14862637  0.53720805  0.64864214    -0.05870
H692        H  0.20407538  0.56543263  0.59992181     0.07900
H693        H  0.13368032  0.52578911  0.67381986     0.09100
Cu694      Cu  0.16973191  0.56161630  0.50911292     0.44170
Cu695      Cu  0.11135551  0.53187506  0.57526547     0.41990
Cu696      Cu  0.10938244  0.53004844  0.94881401     0.43880
N697        N  0.16535324  0.55446676  0.93647010    -0.34520
N698        N  0.14330718  0.54140722  0.91548534    -0.28780
C699        C  0.14651041  0.53542984  0.87118345    -0.04880
C700        C  0.17175616  0.54551110  0.86369284     0.07340
C701        C  0.18317694  0.55753219  0.90567816     0.01140
H702        H  0.13140955  0.52346634  0.84713578     0.08790
H703        H  0.20255431  0.56562398  0.91483963     0.07870
N704        N  0.07974482  0.52423609  0.99133575    -0.35970
N705        N  0.08069431  0.52517645  0.53826428    -0.28150
C706        C  0.06117949  0.52545790  0.55575709    -0.03390
C707        C  0.04727493  0.52475146  0.51800343     0.05220
C708        C  0.05942962  0.52371394  0.97769396     0.03310
H709        H  0.05883253  0.52865936  0.59275755     0.08420
H710        H  0.05516598  0.52489705  0.94111010     0.07250
N711        N  0.13104327  0.75797430  0.89374154    -0.27130
N712        N  0.15298167  0.77190945  0.91496736    -0.34990
C713        C  0.16930843  0.79003437  0.88504925     0.01210
C714        C  0.15702016  0.78770982  0.84348146     0.07230
C715        C  0.13281412  0.76731180  0.85018725    -0.05870
H716        H  0.18799806  0.80517872  0.89459996     0.07900
H717        H  0.11732944  0.76039602  0.82598922     0.09100
Cu718      Cu  0.15902923  0.77084448  0.48700756     0.44170
Cu719      Cu  0.09877160  0.72779902  0.92483523     0.41990
Cu720      Cu  0.10410542  0.72844466  0.55111377     0.43880
N721        N  0.15589717  0.77358218  0.56009726    -0.34520
N722        N  0.13457375  0.75854738  0.58301289    -0.28780
C723        C  0.13589267  0.76732151  0.62718600    -0.04880
C724        C  0.15940891  0.78870633  0.63266771     0.07340
C725        C  0.17169875  0.79220367  0.58955814     0.01140
H726        H  0.12050255  0.75935745  0.65256942     0.08790
H727        H  0.18977923  0.80824774  0.57904128     0.07870
N728        N  0.07574218  0.69882370  0.51410015    -0.35970
N729        N  0.07253326  0.69837570  0.96782191    -0.28150
C730        C  0.05237062  0.67584027  0.95584607    -0.03390
C731        C  0.04288166  0.66111007  0.49667518     0.05220
C732        C  0.05836915  0.67673776  0.53267940     0.03310
H733        H  0.04567878  0.67068257  0.91985083     0.08420
H734        H  0.05800233  0.67236244  0.56978071     0.07250
N735        N  0.80282977  0.33974949  0.89432730    -0.27130
N736        N  0.78132991  0.32705743  0.91815392    -0.34990
C737        C  0.76363641  0.30944356  0.88947291     0.01210
C738        C  0.77461269  0.31087134  0.84586546     0.07230
C739        C  0.79948303  0.33012957  0.85021556    -0.05870
H740        H  0.74483877  0.29514699  0.90093431     0.07900
H741        H  0.81426883  0.33601459  0.82400110     0.09100
Cu742      Cu  0.77827257  0.32927564  0.49137913     0.44170
Cu743      Cu  0.83618595  0.36823722  0.92394511     0.41990
Cu744      Cu  0.83761967  0.36286435  0.55059430     0.43880
N745        N  0.78232401  0.32500715  0.56299959    -0.34520
N746        N  0.80441351  0.33572824  0.58351582    -0.28780
C747        C  0.80133051  0.32590406  0.62705615    -0.04880
C748        C  0.77605037  0.30850298  0.63451876     0.07340
C749        C  0.76452308  0.30842130  0.59330707     0.01140
H750        H  0.81643115  0.33062314  0.65098556     0.08790
H751        H  0.74496113  0.29584665  0.58454620     0.07870
N752        N  0.86543244  0.39326040  0.51228169    -0.35970
N753        N  0.86482553  0.39568096  0.96577865    -0.28150
C754        C  0.88264515  0.41928962  0.95349880    -0.03390
C755        C  0.89506281  0.43235138  0.49429744     0.05220
C756        C  0.88359246  0.41514883  0.53073723     0.03310
H757        H  0.88466746  0.42701229  0.91845076     0.08420
H758        H  0.88656877  0.41893449  0.56850539     0.07250
N759        N  0.78733806  0.56099071  0.58859074    -0.27130
N760        N  0.76579207  0.55072569  0.56626817    -0.34990
C761        C  0.74867164  0.54980397  0.59625257     0.01210
C762        C  0.76023555  0.56029082  0.63911555     0.07230
C763        C  0.78472683  0.56730177  0.63291638    -0.05870
H764        H  0.73004468  0.54429507  0.58613879     0.07900
H765        H  0.79988149  0.57746817  0.65786695     0.09100
Cu766      Cu  0.76313996  0.54498341  0.49320355     0.44170
Cu767      Cu  0.81983679  0.56832366  0.55623746     0.41990
Cu768      Cu  0.82351855  0.57241597  0.92928320     0.43880
N769        N  0.76839399  0.55289546  0.92093995    -0.34520
N770        N  0.79047009  0.56463920  0.89892103    -0.28780
C771        C  0.78796717  0.57139053  0.85535536    -0.04880
C772        C  0.76312176  0.56311099  0.84943857     0.07340
C773        C  0.75123489  0.55141537  0.89155336     0.01140
H774        H  0.80328579  0.58237327  0.83056897     0.08790
H775        H  0.73208294  0.54443379  0.90171544     0.07870
N776        N  0.85091791  0.57357224  0.97020348    -0.35970
N777        N  0.84893097  0.57154097  0.51696601    -0.28150
C778        C  0.86708148  0.56927774  0.53352454    -0.03390
C779        C  0.88141025  0.56981086  0.49548054     0.05220
C780        C  0.87076091  0.57296524  0.95576178     0.03310
H781        H  0.86865198  0.56584062  0.57047805     0.08420
H782        H  0.87627268  0.57376431  0.91892934     0.07250
C783        C  0.97635660  0.55497838  0.52619237     0.00720
C784        C  0.95076447  0.53964648  0.52114741     0.00720
O785        O  0.43246629  0.29627279  0.79954932    -0.72790
O786        O  0.45357177  0.26754205  0.69694914    -0.73770
O787        O  0.45425364  0.26821386  0.79677427    -0.62390
O788        O  0.43173634  0.29557430  0.69725944    -0.70800
O789        O  0.46930638  0.33105157  0.69677708    -0.70350
O790        O  0.49192058  0.30356450  0.79673214    -0.61610
O791        O  0.49121383  0.30288487  0.69410465    -0.74110
O792        O  0.47002045  0.33174290  0.79705753    -0.72890
Cu793      Cu  0.44166766  0.28073465  0.74769963     1.04560
Cu794      Cu  0.48199840  0.31853581  0.74610587     1.04330
C795        C  0.44794699  0.31837286  0.81475263     0.93410
C796        C  0.47562625  0.28073329  0.67916207     0.92550
C797        C  0.47651503  0.28157716  0.81259520     0.84690
C798        C  0.44701846  0.31748859  0.68106272     0.90970
O799        O  0.72862687  0.55310995  0.69499659    -0.72790
O800        O  0.70231840  0.57662613  0.79821268    -0.73770
O801        O  0.70076455  0.57528232  0.69815199    -0.62390
O802        O  0.73028561  0.55456911  0.79740487    -0.70800
O803        O  0.76602638  0.59180159  0.79366033    -0.70350
O804        O  0.73658047  0.61246150  0.69462379    -0.61610
O805        O  0.73813335  0.61387233  0.79692526    -0.74110
O806        O  0.76442020  0.59037550  0.69379986    -0.72890
Cu807      Cu  0.71427682  0.56353743  0.74730205     1.04560
Cu808      Cu  0.75248935  0.60346676  0.74465166     1.04330
C809        C  0.75061962  0.56816151  0.67797711     0.93410
C810        C  0.71614681  0.59884797  0.81399381     0.92550
C811        C  0.71420493  0.59709631  0.68046924     0.84690
C812        C  0.75269490  0.57000633  0.81139522     0.90970
O813        O  0.49443851  0.80653814  0.80742327    -0.72790
O814        O  0.47352899  0.83495009  0.70729868    -0.73770
O815        O  0.47190977  0.83387805  0.80690606    -0.62390
O816        O  0.49616246  0.80785740  0.70531328    -0.70800
O817        O  0.45887589  0.77204564  0.70428879    -0.70350
O818        O  0.43446997  0.79825987  0.80668071    -0.61610
O819        O  0.43612942  0.79936608  0.70403076    -0.74110
O820        O  0.45720547  0.77074028  0.80466356    -0.72890
Cu821      Cu  0.48532291  0.82196923  0.75683699     1.04560
Cu822      Cu  0.44528243  0.78384158  0.75487060     1.04330
C823        C  0.47911282  0.78430192  0.82208307     0.93410
C824        C  0.45168835  0.82162248  0.68961456     0.92550
C825        C  0.44951239  0.82026799  0.82288272     0.84690
C826        C  0.48128067  0.78603886  0.68838820     0.90970
N827        N  0.25959040  0.50641428  0.91025254    -0.27130
N828        N  0.23812690  0.49645043  0.93387949    -0.34990
C829        C  0.22112199  0.49598907  0.90558860     0.01210
C830        C  0.23263318  0.50653490  0.86248149     0.07230
C831        C  0.25703374  0.51311842  0.86671619    -0.05870
H832        H  0.20251245  0.49045755  0.91695159     0.07900
H833        H  0.27204833  0.52286017  0.84077307     0.09100
Cu834      Cu  0.23505981  0.49007859  0.50657342     0.44170
Cu835      Cu  0.29171955  0.51214099  0.93994989     0.41990
Cu836      Cu  0.29440582  0.51617226  0.56769834     0.43880
N837        N  0.23979353  0.49763350  0.57894654    -0.34520
N838        N  0.26175243  0.50905729  0.60024335    -0.28780
C839        C  0.25925748  0.51583784  0.64434439    -0.04880
C840        C  0.23447679  0.50781972  0.65133365     0.07340
C841        C  0.22265380  0.49631985  0.60932267     0.01140
H842        H  0.27451857  0.52655037  0.66885483     0.08790
H843        H  0.20356318  0.48952278  0.60004489     0.07870
N844        N  0.32255191  0.51864469  0.52538154    -0.35970
N845        N  0.32114688  0.51655610  0.97854912    -0.28150
C846        C  0.34204128  0.51896566  0.96116712    -0.03390
C847        C  0.35769140  0.52328952  0.49878312     0.05220
C848        C  0.34455399  0.52266916  0.53904656     0.03310
H849        H  0.34574304  0.51820487  0.92371625     0.08420
H850        H  0.35089029  0.52580105  0.57546911     0.07250
N851        N  0.48801777  0.74882072  0.90956438    -0.27130
N852        N  0.49808585  0.77053829  0.93158628    -0.34990
C853        C  0.49768946  0.78674163  0.90252920     0.01210
C854        C  0.48644948  0.77456108  0.86062463     0.07230
C855        C  0.48037856  0.75052034  0.86627067    -0.05870
H856        H  0.50331719  0.80538634  0.91262014     0.07900
H857        H  0.47063034  0.73525113  0.84125203     0.09100
Cu858      Cu  0.50636549  0.77605592  0.50344719     0.44170
Cu859      Cu  0.48442112  0.71768495  0.94004758     0.41990
Cu860      Cu  0.48941551  0.72142975  0.56779398     0.43880
N861        N  0.50053156  0.77293871  0.57648182    -0.34520
N862        N  0.49233017  0.75195267  0.59945325    -0.28780
C863        C  0.48521377  0.75373638  0.64375349    -0.04880
C864        C  0.48970578  0.77719611  0.64914686     0.07340
C865        C  0.49942338  0.78892488  0.60594406     0.01140
H866        H  0.47654551  0.73876004  0.66942381     0.08790
H867        H  0.50322869  0.80681422  0.59540935     0.07870
N868        N  0.48815997  0.69371258  0.52782721    -0.35970
N869        N  0.48575935  0.69177045  0.98109687    -0.28150
C870        C  0.48441020  0.67103925  0.96674875    -0.03390
C871        C  0.48585886  0.65934512  0.50649721     0.05220
C872        C  0.48857855  0.67450087  0.54443603     0.03310
H873        H  0.48176193  0.66454648  0.93028429     0.08420
H874        H  0.49022298  0.67158210  0.58164703     0.07250
N875        N  0.43968990  0.35441763  0.90431670    -0.27130
N876        N  0.42960198  0.33283101  0.92639881    -0.34990
C877        C  0.42962982  0.31634903  0.89661876     0.01210
C878        C  0.44063212  0.32824145  0.85415474     0.07230
C879        C  0.44697189  0.35238181  0.86026971    -0.05870
H880        H  0.42400760  0.29775168  0.90650068     0.07900
H881        H  0.45675197  0.36752007  0.83508399     0.09100
Cu882      Cu  0.42196960  0.32810977  0.49889738     0.44170
Cu883      Cu  0.44396332  0.38587608  0.93573149     0.41990
Cu884      Cu  0.44213420  0.38422752  0.56389665     0.43880
N885        N  0.42850453  0.33167109  0.57146566    -0.34520
N886        N  0.43790692  0.35300455  0.59447948    -0.28780
C887        C  0.44496693  0.35093681  0.63803686    -0.04880
C888        C  0.43921773  0.32698815  0.64290510     0.07340
C889        C  0.42878286  0.31525108  0.60014915     0.01140
H890        H  0.45438929  0.36599550  0.66356852     0.08790
H891        H  0.42386895  0.29693200  0.58923270     0.07870
N892        N  0.44287748  0.41164777  0.52464487    -0.35970
N893        N  0.44357972  0.41243150  0.97765305    -0.28150
C894        C  0.44435288  0.43276532  0.96355887    -0.03390
C895        C  0.44395367  0.44526395  0.50369153     0.05220
C896        C  0.44321864  0.43139444  0.54170249     0.03310
H897        H  0.44607440  0.43854849  0.92691728     0.08420
H898        H  0.44358187  0.43570594  0.57913066     0.07250
N899        N  0.67994910  0.60706826  0.90317224    -0.27130
N900        N  0.70141185  0.61680231  0.92560156    -0.34990
C901        C  0.71827732  0.61714674  0.89578638     0.01210
C902        C  0.70665444  0.60681057  0.85293161     0.07230
C903        C  0.68236469  0.60047014  0.85893694    -0.05870
H904        H  0.73676064  0.62223962  0.90598708     0.07900
H905        H  0.66722055  0.59067898  0.83384184     0.09100
Cu906      Cu  0.70440694  0.62272193  0.49858293     0.44170
Cu907      Cu  0.64775823  0.60090768  0.93518645     0.41990
Cu908      Cu  0.64507802  0.59817868  0.56277173     0.43880
N909        N  0.69931829  0.61497021  0.57086841    -0.34520
N910        N  0.67738086  0.60416613  0.59319551    -0.28780
C911        C  0.67953693  0.59705140  0.63668684    -0.04880
C912        C  0.70407860  0.60420285  0.64222031     0.07340
C913        C  0.71610489  0.61555228  0.59997027     0.01140
H914        H  0.66419260  0.58670378  0.66175033     0.08790
H915        H  0.73503925  0.62176389  0.58960900     0.07870
N916        N  0.61704073  0.59573371  0.52182804    -0.35970
N917        N  0.61832801  0.59687492  0.97488033    -0.28150
C918        C  0.59744435  0.59418748  0.95819094    -0.03390
C919        C  0.58218670  0.59135148  0.49641534     0.05220
C920        C  0.59515820  0.59225496  0.53629444     0.03310
H921        H  0.59337518  0.59365324  0.92079949     0.08420
H922        H  0.58872404  0.58954585  0.57291716     0.07250
C923        C  0.47593269  0.54847632  0.50079634     0.00720
C924        C  0.46245110  0.55918297  0.50146657     0.00720
C925        C  0.54062997  0.56689541  0.95918230    -0.12110
C926        C  0.55589660  0.58416450  0.49411498     0.04890
C927        C  0.54529914  0.59252243  0.52754823    -0.07400
C928        C  0.51932569  0.58199236  0.52703743    -0.08140
C929        C  0.50378345  0.56348230  0.49381887    -0.02700
C930        C  0.51483169  0.55646962  0.95841823     0.04120
N931        N  0.50010886  0.53811970  0.92254291     0.66630
H932        H  0.54870001  0.56066521  0.93314241     0.15530
H933        H  0.51103552  0.58743553  0.55415519     0.15240
N934        N  0.56047893  0.61155924  0.56195249     0.74330
O935        O  0.48253526  0.53792564  0.90241678    -0.39120
O936        O  0.50624850  0.52364861  0.40738925    -0.39060
O937        O  0.58204849  0.62981938  0.05056085    -0.39770
O938        O  0.55131021  0.61173584  0.60196650    -0.39830
C939        C  0.44513355  0.50376386  0.47605268    -0.12110
C940        C  0.46404406  0.52100204  0.50696445     0.04890
C941        C  0.47423109  0.51228357  0.03950620    -0.07400
C942        C  0.46647638  0.48733403  0.03835816    -0.08140
C943        C  0.44851505  0.47042582  0.50615128    -0.02700
C944        C  0.43689801  0.47843965  0.47566437     0.04120
N945        N  0.41667045  0.46130032  0.44490728     0.66630
H946        H  0.43734182  0.51021626  0.45086051     0.15530
H947        H  0.47520671  0.48125010  0.06218400     0.15240
N948        N  0.49309270  0.52861076  0.07305963     0.74330
O949        O  0.41165644  0.46921603  0.40882927    -0.39120
O950        O  0.40170431  0.43884882  0.95693572    -0.39060
O951        O  0.48987222  0.54254720  0.59968055    -0.39770
O952        O  0.51146305  0.52684274  0.08040407    -0.39830
C953        C  0.49270421  0.62783493  0.97113710    -0.12110
C954        C  0.48279189  0.63480448  0.50828904     0.04890
C955        C  0.46945220  0.61785977  0.54574996    -0.07400
C956        C  0.46601218  0.59448221  0.54458662    -0.08140
C957        C  0.47405631  0.58664545  0.50567413    -0.02700
C958        C  0.48816592  0.60384940  0.96891192     0.04120
N959        N  0.49680284  0.59710628  0.92795025     0.66630
H960        H  0.50311786  0.64077198  0.94244686     0.15530
H961        H  0.45473729  0.58138450  0.57243836     0.15240
N962        N  0.45691268  0.62280269  0.58254158     0.74330
O963        O  0.48129003  0.57929656  0.90179739    -0.39120
O964        O  0.51900526  0.61166918  0.91302343    -0.39060
O965        O  0.44153560  0.62836006  0.07155364    -0.39770
O966        O  0.45740933  0.61694439  0.62502136    -0.39830
C967        C  0.39258008  0.52190914  0.53320579    -0.12110
C968        C  0.38378755  0.52971776  0.49650111     0.04890
C969        C  0.40037875  0.54431220  0.95920130    -0.07400
C970        C  0.42508777  0.55081654  0.95978146    -0.08140
C971        C  0.43452784  0.54477498  0.49814405    -0.02700
C972        C  0.41786459  0.52965691  0.53512213     0.04120
N973        N  0.42624360  0.52305440  0.57582787     0.66630
H974        H  0.37993393  0.51064866  0.56184368     0.15530
H975        H  0.43771307  0.56287434  0.93195929     0.15240
N976        N  0.39349854  0.55508560  0.92331976     0.74330
O977        O  0.44559734  0.53941980  0.59762050    -0.39120
O978        O  0.41235358  0.50175887  0.59421093    -0.39060
O979        O  0.38532356  0.56831687  0.43544901    -0.39770
O980        O  0.40013762  0.55554235  0.88058681    -0.39830
C981        C  0.91471922  0.57076791  0.54128663    -0.12110
C982        C  0.90146437  0.56481630  0.49854910     0.04890
C983        C  0.90640924  0.55266824  0.96219346    -0.07400
C984        C  0.92365285  0.54616428  0.97012556    -0.08140
C985        C  0.93540985  0.55040055  0.51418461    -0.02700
C986        C  0.93105226  0.56319301  0.55039421     0.04120
N987        N  0.94124610  0.56710786  0.59743789     0.66630
H988        H  0.91129929  0.58034149  0.56910803     0.15530
H989        H  0.92688932  0.53640255  0.94234669     0.15240
N990        N  0.89283596  0.54494431  0.91855477     0.74330
O991        O  0.94323811  0.58417052  0.62364148    -0.39120
O992        O  0.94492633  0.55160901  0.61558947    -0.39060
O993        O  0.90459436  0.54978470  0.87944399    -0.39770
O994        O  0.86945585  0.52916533  0.91942366    -0.39830
C995        C  0.94407452  0.50197493  0.47776262    -0.12110
C996        C  0.93689397  0.51199211  0.51436582     0.04890
C997        C  0.91560008  0.49550475  0.04262641    -0.07400
C998        C  0.90315277  0.46987608  0.53590548    -0.08140
C999        C  0.91060209  0.45976863  0.50038327    -0.02700
C1000       C  0.93132154  0.47601623  0.47054256     0.04120
N1001       N  0.94006039  0.46667222  0.43390469     0.66630
H1002       H  0.95992654  0.51449219  0.45510537     0.15410
H1003       H  0.88686740  0.45772547  0.05802839     0.15240
N1004       N  0.90617027  0.50422883  0.07861148     0.74330
O1005       O  0.95141411  0.47972880  0.89764929    -0.39120
O1006       O  0.93893297  0.44667481  0.43984933    -0.39060
O1007       O  0.89032640  0.50908850  0.06721362    -0.39770
O1008       O  0.90733106  0.49956138  0.62159370    -0.39830
C1009       C  0.99340349  0.59180105  0.97372178    -0.12110
C1010       C  0.98863731  0.58248186  0.52037723     0.04890
C1011       C  0.99959309  0.59940219  0.55873133    -0.07400
C1012       C  0.01462810  0.62495349  0.54920113    -0.08140
C1013       C  0.02240328  0.63414830  0.50258618    -0.02700
C1014       C  0.01162035  0.61698749  0.96427567     0.04120
N1015       N  0.02130732  0.62365853  0.91667636     0.66630
H1016       H  0.98580117  0.57873792  0.94422379     0.15530
H1017       H  0.02188694  0.63749006  0.57926262     0.15240
N1018       N  0.99701214  0.59129513  0.60720591     0.74330
O1019       O  0.00634380  0.61683864  0.88242556    -0.39120
O1020       O  0.04361749  0.63031826  0.90819992    -0.39060
O1021       O  0.99915498  0.57352729  0.61726352    -0.39770
O1022       O  0.99674272  0.60439588  0.14072668    -0.39830
C1023       C  0.00621691  0.51693082  0.04440936    -0.12110
C1024       C  0.02906749  0.53196315  0.52015238     0.04890
C1025       C  0.03551783  0.55517911  0.50302069    -0.07400
C1026       C  0.01800797  0.56156968  0.50536026    -0.08140
C1027       C  0.99417146  0.54622187  0.52733062    -0.02700
C1028       C  0.98920751  0.52424658  0.05033249     0.04120
N1029       N  0.96849384  0.51025343  0.08276418     0.66630
H1030       H  0.00221269  0.49997962  0.06098367     0.15530
H1031       H  0.02391784  0.57926441  0.48994367     0.15240
N1032       N  0.06052629  0.57358880  0.48726843     0.74330
O1033       O  0.95812607  0.48703012  0.08668782    -0.39120
O1034       O  0.96330446  0.52143407  0.61297611    -0.39060
O1035       O  0.06857888  0.57104146  0.94789104    -0.39770
O1036       O  0.07260593  0.59445059  0.50807221    -0.39830
C1037       C  0.53489069  0.09825744  0.53772053    -0.12110
C1038       C  0.54602681  0.09229189  0.50138270     0.04890
C1039       C  0.53052673  0.07369840  0.96770077    -0.07400
C1040       C  0.50446851  0.06257110  0.96996919    -0.08140
C1041       C  0.49350609  0.06913778  0.50560419    -0.02700
C1042       C  0.50890645  0.08678764  0.54058679     0.04120
N1043       N  0.49844737  0.09290533  0.57969690     0.66630
H1044       H  0.54656308  0.11222339  0.56401105     0.15530
H1045       H  0.49258441  0.04855126  0.94394404     0.15240
N1046       N  0.54073982  0.06540926  0.93201832     0.74330
O1047       O  0.51020155  0.11474325  0.59647435    -0.39120
O1048       O  0.47928910  0.07588915  0.60165197    -0.39060
O1049       O  0.55807431  0.06247467  0.94231542    -0.39770
O1050       O  0.53026418  0.05781783  0.89214898    -0.39830
C1051       C  0.44606598  0.08187156  0.02997971    -0.12110
C1052       C  0.46039055  0.07846464  0.49624285     0.04890
C1053       C  0.47148177  0.09547319  0.45798384    -0.07400
C1054       C  0.46947991  0.11606511  0.45640933    -0.08140
C1055       C  0.45554249  0.11956987  0.49077715    -0.02700
C1056       C  0.44231468  0.10130805  0.02627242     0.04120
N1057       N  0.42458987  0.10173957  0.55779789     0.66630
H1058       H  0.43798469  0.06949783  0.06011955     0.15530
H1059       H  0.47922554  0.12962847  0.42832226     0.15240
N1060       N  0.48491671  0.09218105  0.42055642     0.74330
O1061       O  0.41919102  0.09116514  0.09761557    -0.39120
O1062       O  0.41099476  0.10873277  0.54248759    -0.39060
O1063       O  0.47491516  0.07165269  0.89900737    -0.39770
O1064       O  0.50531404  0.11064058  0.40478542    -0.39830
C1065       C  0.37988720  0.01179804  0.53796027    -0.12110
C1066       C  0.36920455  0.00488616  0.49234979     0.04890
C1067       C  0.38529665  0.01027506  0.95256687    -0.07400
C1068       C  0.41117055  0.02246219  0.95948602    -0.08140
C1069       C  0.42107537  0.02643979  0.50535336    -0.02700
C1070       C  0.40524812  0.02123592  0.54540574     0.04120
N1071       N  0.41424569  0.02508416  0.59358202     0.66630
H1072       H  0.36819186  0.00860779  0.56878070     0.15530
H1073       H  0.42331991  0.02608975  0.92901336     0.15240
N1074       N  0.37581536  0.00088042  0.90597578     0.74330
O1075       O  0.40322808  0.02904556  0.62660676    -0.39120
O1076       O  0.43221578  0.02319466  0.60410668    -0.39060
O1077       O  0.38578128  0.01498665  0.87039017    -0.39770
O1078       O  0.36216292  0.97771829  0.39928997    -0.39830
C1079       C  0.44341627  0.97241633  0.99412402    -0.12110
C1080       C  0.46653875  0.97858199  0.51123589     0.04890
C1081       C  0.48206334  0.00160311  0.53478755    -0.07400
C1082       C  0.47415544  0.01815648  0.53848840    -0.08140
C1083       C  0.45241474  0.01348556  0.51562519    -0.02700
C1084       C  0.43576288  0.98887300  0.99754096     0.04120
N1085       N  0.41007642  0.97878005  0.98717283     0.66630
H1086       H  0.43046538  0.95391747  0.97984356     0.15530
H1087       H  0.48544543  0.03501043  0.55889692     0.15240
N1088       N  0.50613397  0.00894407  0.55322718     0.74330
O1089       O  0.40206275  0.97015308  0.94611864    -0.39120
O1090       O  0.39459523  0.97130719  0.52081068    -0.39060
O1091       O  0.51820261  0.00057015  0.03464214    -0.39770
O1092       O  0.51676752  0.02607859  0.58395531    -0.39830
loop_ 
_geom_bond_atom_site_label_1 
_geom_bond_atom_site_label_2 
_geom_bond_distance 
_geom_bond_site_symmetry_2 
_ccdc_geom_bond_type 
O1           Cu9   2.003       .  S
O1           C11   1.276       .  A
O2           Cu9   2.023       .  S
O2           C12   1.279       .  A
O3           Cu9   2.024       .  S
O3           C13   1.279       .  A
O4           Cu9   2.005       .  S
O4           C14   1.276       .  A
O5          Cu10   2.017       .  S
O5           C14   1.278       .  A
O6          Cu10   1.997       .  S
O6           C13   1.276       .  A
O7          Cu10   1.999       .  S
O7           C12   1.276       .  A
O8          Cu10   2.017       .  S
O8           C11   1.278       .  A
Cu9         Cu10   2.378       .  S
C11         C202   1.466       .  S
C12          C90   1.466       .  S
C13         C100   1.466       .  S
C14         C192   1.465       .  S
N15          N16   1.323       .  A
N15          C19   1.342       .  A
N15         Cu23   2.069       .  S
N16          C17   1.347       .  A
N16         Cu22   2.079       .  S
C17          C18   1.383       .  A
C17          H20   1.082       .  S
C18         C278   1.464       .  S
C18          C19   1.380       .  A
C19          H21   1.082       .  S
Cu22        N571   2.078   1_554  S
Cu23         N33   2.067       .  S
Cu24         N26   2.073       .  S
Cu24         N32   2.072       .  S
N25          N26   1.323       .  A
N25          C29   1.348       .  A
N25        Cu568   2.078       .  S
N26          C27   1.343       .  A
C27          C28   1.381       .  A
C27          H30   1.082       .  S
C28         C279   1.465       .  S
C28          C29   1.383       .  A
C29          H31   1.082       .  S
N32         N579   1.320       .  A
N32          C36   1.343       .  A
N33         N578   1.320   1_554  A
N33          C34   1.346       .  A
C34          C35   1.384       .  A
C34          H37   1.082       .  S
C35         C534   1.476       .  S
C35         C582   1.386   1_554  A
C36         C581   1.386       .  A
C36          H38   1.083       .  S
N39          N40   1.325       .  A
N39          C43   1.344       .  A
N39         Cu47   2.085       .  S
N40          C41   1.348       .  A
N40        Cu592   2.081       .  S
C41          C42   1.382       .  A
C41          H44   1.082       .  S
C42         C138   1.467       .  S
C42          C43   1.382       .  A
C43          H45   1.082       .  S
Cu46         N49   2.080   1_556  S
Cu46        N586   2.081       .  S
Cu47         N57   2.082       .  S
Cu48         N50   2.049       .  S
Cu48         N56   2.049       .  S
N49          N50   1.321       .  A
N49          C53   1.348       .  A
N50          C51   1.339       .  A
C51          C52   1.377       .  A
C51          H54   1.082       .  S
C52         C139   1.462       .  S
C52          C53   1.386       .  A
C53          H55   1.082       .  S
N56         N603   1.317   1_554  A
N56          C60   1.337       .  A
N57         N602   1.317       .  A
N57          C58   1.348       .  A
C58         C605   1.397       .  A
C58          H61   1.080       .  S
C59         C520   1.497   1_565  S
C59          C60   1.387   1_556  A
C59         C604   1.397       .  A
C60          H62   1.081       .  S
N63          N64   1.323       .  A
N63          C67   1.344       .  A
N63         Cu71   2.075       .  S
N64          C65   1.347       .  A
N64         Cu70   2.078   1_554  S
C65          C66   1.382       .  A
C65          H68   1.082       .  S
C66         C250   1.466       .  S
C66          C67   1.382       .  A
C67          H69   1.082       .  S
Cu70        N619   2.078       .  S
Cu71         N81   2.074       .  S
Cu72         N74   2.071       .  S
Cu72         N80   2.071       .  S
N73          N74   1.323       .  A
N73          C77   1.347       .  A
N73        Cu616   2.078       .  S
N74          C75   1.343       .  A
C75          C76   1.381       .  A
C75          H78   1.082       .  S
C76         C251   1.465       .  S
C76          C77   1.383       .  A
C77          H79   1.082       .  S
N80         N627   1.320       .  A
N80          C84   1.345       .  A
N81         N626   1.320   1_554  A
N81          C82   1.344       .  A
C82          C83   1.387   1_554  A
C82          H85   1.082       .  S
C83         C509   1.484       .  S
C83         C630   1.386       .  A
C84         C629   1.386       .  A
C84          H86   1.082       .  S
N87          N88   1.324       .  A
N87          C91   1.344       .  A
N87         Cu95   2.075       .  S
N88          C89   1.347       .  A
N88        Cu640   2.079       .  S
C89          C90   1.382       .  A
C89          H92   1.082       .  S
C90          C91   1.381       .  A
C91          H93   1.082       .  S
Cu94         N97   2.079   1_556  S
Cu94        N634   2.079       .  S
Cu95        N105   2.074       .  S
Cu96         N98   2.071       .  S
Cu96        N104   2.071       .  S
N97          N98   1.322       .  A
N97         C101   1.347       .  A
N98          C99   1.343       .  A
C99         C100   1.381       .  A
C99         H102   1.082       .  S
C100        C101   1.383       .  A
C101        H103   1.082       .  S
N104        N651   1.321   1_554  A
N104        C108   1.343       .  A
N105        N650   1.321       .  A
N105        C106   1.346       .  A
C106        C653   1.387       .  A
C106        H109   1.082       .  S
C107        C492   1.483   1_556  S
C107        C108   1.385   1_556  A
C107        C652   1.387       .  A
C108        H110   1.082       .  S
C111        C112   1.383       .  D
C111        C523   1.489       .  S
C111        C537   1.532       .  S
C112        C495   1.493       .  S
C112        C506   1.508   1_554  S
O113       Cu121   2.003       .  S
O113        C123   1.276       .  A
O114       Cu121   2.021       .  S
O114        C124   1.278       .  A
O115       Cu121   2.023       .  S
O115        C125   1.279       .  A
O116       Cu121   2.003       .  S
O116        C126   1.276       .  A
O117       Cu122   2.013       .  S
O117        C126   1.278       .  A
O118       Cu122   1.996       .  S
O118        C125   1.275       .  A
O119       Cu122   1.992       .  S
O119        C124   1.275       .  A
O120       Cu122   2.013       .  S
O120        C123   1.277       .  A
Cu121      Cu122   2.378       .  S
C123        C284   1.463       .  S
C124        C144   1.463       .  S
C125        C154   1.466       .  S
C126        C294   1.463       .  S
O127       Cu135   2.005       .  S
O127        C137   1.277       .  A
O128       Cu135   2.029       .  S
O128        C138   1.280       .  A
O129       Cu135   2.016       .  S
O129        C139   1.277       .  A
O130       Cu135   2.000       .  S
O130        C140   1.276       .  A
O131       Cu136   2.018       .  S
O131        C140   1.279       .  A
O132       Cu136   1.993       .  S
O132        C139   1.276       .  A
O133       Cu136   1.994       .  S
O133        C138   1.275       .  A
O134       Cu136   2.008       .  S
O134        C137   1.276       .  A
Cu135      Cu136   2.378       .  S
C137        C178   1.462       .  S
C140        C168   1.465       .  S
N141        N142   1.322       .  A
N141        C145   1.341       .  A
N141       Cu149   2.061       .  S
N142        C143   1.347       .  A
N142       Cu148   2.077       .  S
C143        C144   1.384       .  A
C143        H146   1.082       .  S
C144        C145   1.379       .  A
C145        H147   1.082       .  S
Cu148       N697   2.077   1_554  S
Cu149       N159   2.060       .  S
Cu150       N152   2.079       .  S
Cu150       N158   2.078       .  S
N151        N152   1.324       .  A
N151        C155   1.346       .  A
N151       Cu694   2.077       .  S
N152        C153   1.345       .  A
C153        C154   1.382       .  A
C153        H156   1.083       .  S
C154        C155   1.381       .  A
C155        H157   1.082       .  S
N158        N705   1.321       .  A
N158        C162   1.344       .  A
N159        N704   1.321   1_554  A
N159        C160   1.344       .  A
C160        C161   1.380       .  A
C160        H163   1.082       .  S
C161        C478   1.474       .  S
C161        C708   1.385   1_554  A
C162        C707   1.385       .  A
C162        H164   1.082       .  S
N165        N166   1.326       .  A
N165        C169   1.346       .  A
N165       Cu173   2.087       .  S
N166        C167   1.345       .  A
N166       Cu718   2.077       .  S
C167        C168   1.379       .  A
C167        H170   1.082       .  S
C168        C169   1.382       .  A
C169        H171   1.082       .  S
Cu172       N175   2.076   1_556  S
Cu172       N712   2.077       .  S
Cu173       N183   2.084       .  S
Cu174       N176   2.052       .  S
Cu174       N182   2.052       .  S
N175        N176   1.320       .  A
N175        C179   1.346       .  A
N176        C177   1.342       .  A
C177        C178   1.379       .  A
C177        H180   1.082       .  S
C178        C179   1.384       .  A
C179        H181   1.082       .  S
N182        N729   1.318   1_554  A
N182        C186   1.336       .  A
N183        N728   1.318       .  A
N183        C184   1.349       .  A
C184        C731   1.397       .  A
C184        H187   1.080       .  S
C185        C467   1.499   1_556  S
C185        C186   1.388   1_556  A
C185        C730   1.397       .  A
C186        H188   1.080       .  S
N189        N190   1.323       .  A
N189        C193   1.346       .  A
N189       Cu197   2.078       .  S
N190        C191   1.345       .  A
N190       Cu742   2.075       .  S
C191        C192   1.381       .  A
C191        H194   1.082       .  S
C192        C193   1.382       .  A
C193        H195   1.081       .  S
Cu196       N199   2.075   1_556  S
Cu196       N736   2.075       .  S
Cu197       N207   2.077       .  S
Cu198       N200   2.074       .  S
Cu198       N206   2.074       .  S
N199        N200   1.322       .  A
N199        C203   1.346       .  A
N200        C201   1.345       .  A
C201        C202   1.382       .  A
C201        H204   1.082       .  S
C202        C203   1.382       .  A
C203        H205   1.082       .  S
N206        N753   1.321   1_554  A
N206        C210   1.342       .  A
N207        N752   1.321       .  A
N207        C208   1.348       .  A
C208        C755   1.387       .  A
C208        H211   1.082       .  S
C209        C453   1.482   1_556  S
C209        C210   1.385   1_556  A
C209        C754   1.387       .  A
C210        H212   1.083       .  S
N213        N214   1.321       .  A
N213        C217   1.342       .  A
N213       Cu221   2.059       .  S
N214        C215   1.347       .  A
N214       Cu220   2.075   1_554  S
C215        C216   1.383       .  A
C215        H218   1.082       .  S
C216        C263   1.462       .  S
C216        C217   1.380       .  A
C217        H219   1.083       .  S
Cu220       N769   2.076       .  S
Cu221       N231   2.059       .  S
Cu222       N224   2.082       .  S
Cu222       N230   2.080       .  S
N223        N224   1.324       .  A
N223        C227   1.345       .  A
N223       Cu766   2.076       .  S
N224        C225   1.345       .  A
C225        C226   1.383       .  A
C225        H228   1.082       .  S
C226        C266   1.466       .  S
C226        C227   1.381       .  A
C227        H229   1.081       .  S
N230        N777   1.320       .  A
N230        C234   1.348       .  A
N231        N776   1.320   1_554  A
N231        C232   1.339       .  A
C232        C233   1.385   1_554  A
C232        H235   1.082       .  S
C233        C436   1.489       .  S
C233        C780   1.392       .  A
C234        C779   1.392       .  A
C234        H236   1.081       .  S
C237        C238   1.377       .  D
C237        C464   1.499       .  S
C237        C481   1.527       .  S
C238        C439   1.498       .  S
C238        C450   1.499       .  S
O239       Cu247   2.015       .  S
O239        C249   1.278       .  A
O240       Cu247   1.997       .  S
O240        C250   1.276       .  A
O241       Cu247   1.995       .  S
O241        C251   1.276       .  A
O242       Cu247   2.015       .  S
O242        C252   1.278       .  A
O243       Cu248   2.005       .  S
O243        C252   1.277       .  A
O244       Cu248   2.024       .  S
O244        C251   1.279       .  A
O245       Cu248   2.023       .  S
O245        C250   1.279       .  A
O246       Cu248   2.004       .  S
O246        C249   1.276       .  A
Cu247      Cu248   2.378       .  S
C249        C332   1.464       .  S
C252        C342   1.464       .  S
O253       Cu261   2.017       .  S
O253        C263   1.278       .  A
O254       Cu261   1.998       .  S
O254        C264   1.276       .  A
O255       Cu261   2.004       .  S
O255        C265   1.276       .  A
O256       Cu261   2.022       .  S
O256        C266   1.279       .  A
O257       Cu262   1.999       .  S
O257        C266   1.276       .  A
O258       Cu262   2.017       .  S
O258        C265   1.278       .  A
O259       Cu262   2.016       .  S
O259        C264   1.278       .  A
O260       Cu262   1.995       .  S
O260        C263   1.276       .  A
Cu261      Cu262   2.378       .  S
C264        C356   1.462       .  S
C265        C366   1.465       .  S
O267       Cu275   2.013       .  S
O267        C277   1.278       .  A
O268       Cu275   1.992       .  S
O268        C278   1.275       .  A
O269       Cu275   1.991       .  S
O269        C279   1.275       .  A
O270       Cu275   2.009       .  S
O270        C280   1.277       .  A
O271       Cu276   2.004       .  S
O271        C280   1.277       .  A
O272       Cu276   2.026       .  S
O272        C279   1.279       .  A
O273       Cu276   2.023       .  S
O273        C278   1.279       .  A
O274       Cu276   2.007       .  S
O274        C277   1.277       .  A
Cu275      Cu276   2.378       .  S
C277        C308   1.465       .  S
C280        C318   1.461       .  S
N281        N282   1.322       .  A
N281        C285   1.345       .  A
N281       Cu289   2.067       .  S
N282        C283   1.346       .  A
N282       Cu834   2.073       .  S
C283        C284   1.382       .  A
C283        H286   1.081       .  S
C284        C285   1.381       .  A
C285        H287   1.082       .  S
Cu288       N291   2.074       .  S
Cu288       N828   2.073   1_554  S
Cu289       N299   2.068       .  S
Cu290       N292   2.075       .  S
Cu290       N298   2.074       .  S
N291        N292   1.323       .  A
N291        C295   1.344       .  A
N292        C293   1.345       .  A
C293        C294   1.382       .  A
C293        H296   1.083       .  S
C294        C295   1.380       .  A
C295        H297   1.082       .  S
N298        N845   1.321   1_554  A
N298        C302   1.346       .  A
N299        N844   1.321       .  A
N299        C300   1.342       .  A
C300        C847   1.385       .  A
C300        H303   1.082       .  S
C301        C422   1.483       .  S
C301        C302   1.386   1_556  A
C301        C846   1.385       .  A
C302        H304   1.082       .  S
N305        N306   1.324       .  A
N305        C309   1.347       .  A
N305       Cu313   2.081       .  S
N306        C307   1.344       .  A
N306       Cu858   2.073       .  S
C307        C308   1.380       .  A
C307        H310   1.082       .  S
C308        C309   1.383       .  A
C309        H311   1.082       .  S
Cu312       N315   2.072       .  S
Cu312       N852   2.073   1_554  S
Cu313       N323   2.081       .  S
Cu314       N316   2.061       .  S
Cu314       N322   2.062       .  S
N315        N316   1.321       .  A
N315        C319   1.345       .  A
N316        C317   1.344       .  A
C317        C318   1.380       .  A
C317        H320   1.082       .  S
C318        C319   1.382       .  A
C319        H321   1.082       .  S
N322        N869   1.321   1_554  A
N322        C326   1.342       .  A
N323        N868   1.321       .  A
N323        C324   1.347       .  A
C324        C871   1.388       .  A
C324        H327   1.082       .  S
C325        C408   1.482       .  S
C325        C326   1.383       .  A
C325        C870   1.387   1_554  A
C326        H328   1.082       .  S
N329        N330   1.323       .  A
N329        C333   1.346       .  A
N329       Cu337   2.077       .  S
N330        C331   1.345       .  A
N330       Cu882   2.074       .  S
C331        C332   1.380       .  A
C331        H334   1.082       .  S
C332        C333   1.382       .  A
C333        H335   1.082       .  S
Cu336       N339   2.073   1_556  S
Cu336       N876   2.074       .  S
Cu337       N347   2.076       .  S
Cu338       N340   2.071       .  S
Cu338       N346   2.071       .  S
N339        N340   1.322       .  A
N339        C343   1.345       .  A
N340        C341   1.345       .  A
C341        C342   1.382       .  A
C341        H344   1.082       .  S
C342        C343   1.382       .  A
C343        H345   1.082       .  S
N346        N893   1.322   1_554  A
N346        C350   1.343       .  A
N347        N892   1.322       .  A
N347        C348   1.347       .  A
C348        C895   1.386       .  A
C348        H351   1.082       .  S
C349        C397   1.480       .  S
C349        C350   1.384       .  A
C349        C894   1.386   1_554  A
C350        H352   1.082       .  S
N353        N354   1.322       .  A
N353        C357   1.343       .  A
N353       Cu361   2.063       .  S
N354        C355   1.346       .  A
N354       Cu906   2.074       .  S
C355        C356   1.383       .  A
C355        H358   1.082       .  S
C356        C357   1.380       .  A
C357        H359   1.083       .  S
Cu360       N363   2.075   1_556  S
Cu360       N900   2.074       .  S
Cu361       N371   2.063       .  S
Cu362       N364   2.080       .  S
Cu362       N370   2.079       .  S
N363        N364   1.324       .  A
N363        C367   1.345       .  A
N364        C365   1.346       .  A
C365        C366   1.383       .  A
C365        H368   1.082       .  S
C366        C367   1.381       .  A
C367        H369   1.081       .  S
N370        N917   1.321   1_554  A
N370        C374   1.347       .  A
N371        N916   1.321       .  A
N371        C372   1.342       .  A
C372        C919   1.383       .  A
C372        H375   1.083       .  S
C373        C380   1.481       .  S
C373        C374   1.387   1_556  A
C373        C918   1.383       .  A
C374        H376   1.082       .  S
C377        C378   1.370       .  D
C377        C383   1.497   1_554  S
C377        C394   1.502       .  S
C378        C411   1.497       .  S
C378        C425   1.496   1_554  S
C379        C384   1.398       .  A
C379        C926   1.401       .  A
C379        H386   1.083       .  S
C380        C381   1.415   1_556  A
C380        C925   1.401       .  A
C381        C382   1.407       .  A
C381        N388   1.439       .  S
C382        C383   1.406   1_554  A
C382        H387   1.082       .  S
C383        C930   1.418       .  A
C384        C929   1.418       .  A
C384        N385   1.441       .  S
N385        O389   1.261       .  A
N385        O936   1.263       .  A
N388        O392   1.263       .  A
N388        O937   1.263       .  A
O390        N931   1.263       .  A
O391        N934   1.263       .  A
C393        C394   1.408   1_556  A
C393        C398   1.410       .  A
C393        H400   1.082       .  S
C394        C941   1.419       .  A
C395        C396   1.396       .  A
C395        C940   1.419       .  A
C395        N402   1.437       .  S
C396        C943   1.399       .  A
C396        H401   1.084       .  S
C397        C398   1.417   1_554  A
C397        C942   1.399       .  A
C398        N399   1.442       .  S
N399        O403   1.263       .  A
N399        O950   1.263       .  A
N402        O406   1.263       .  A
N402        O951   1.261       .  A
O404        N945   1.263       .  A
O405        N948   1.261       .  A
C407        C412   1.406       .  A
C407        C954   1.405       .  A
C407        H414   1.083       .  S
C408        C409   1.413       .  A
C408        C953   1.405   1_554  A
C409        C410   1.396       .  A
C409        N416   1.436       .  S
C410        C411   1.404       .  A
C410        H415   1.082       .  S
C411        C958   1.415   1_554  A
C412        C957   1.415       .  A
C412        N413   1.432       .  S
N413        O417   1.261       .  A
N413        O418   1.262       .  A
N416        O420   1.263       .  A
N416        O965   1.263       .  A
O419        N962   1.263       .  A
C421        C422   1.406   1_554  A
C421        C426   1.408       .  A
C421        H428   1.083       .  S
C422        C969   1.412       .  A
C423        C424   1.395       .  A
C423        C968   1.412       .  A
C423        N430   1.436       .  S
C424        C971   1.404       .  A
C424        H429   1.081       .  S
C425        C426   1.417   1_556  A
C425        C970   1.404       .  A
C426        N427   1.436       .  S
N427        O431   1.261       .  A
N427        O432   1.262       .  A
N430        O434   1.263       .  A
N430        O979   1.263       .  A
O433        N976   1.263       .  A
C435        C436   1.405   1_554  A
C435        C440   1.404       .  A
C435        H442   1.082       .  S
C436        C983   1.414       .  A
C437        C438   1.401       .  A
C437        C982   1.414       .  A
C437        N444   1.432       .  S
C438        C985   1.404       .  A
C438        H443   1.084       .  S
C439        C440   1.420       .  A
C439        C984   1.404   1_554  A
C440        N441   1.441       .  S
N441        O445   1.263       .  A
N441        O446   1.260       .  A
N444        O447   1.262       .  A
N444        O448   1.262       .  A
C449        C450   1.408   1_556  A
C449        C454   1.412       .  A
C449        H456   1.083       .  S
C450        C997   1.415       .  A
C451        C996   1.415       .  A
C451        C998   1.393       .  A
C451        N458   1.429       .  S
C452        C453   1.400       .  A
C452        C997   1.393       .  A
C452       H1003   1.084       .  S
C453        C454   1.417   1_554  A
C454        N455   1.440       .  S
N455        O460   1.262       .  A
N455       O1005   1.263       .  A
H457        C998   1.084       .  S
N458        O461   1.262       .  A
N458       O1008   1.262       .  A
O459       N1001   1.263       .  A
O462       N1004   1.262       .  A
C463        C468   1.405   1_655  A
C463       C1010   1.406       .  A
C463        H470   1.085       .  S
C464        C465   1.412       .  A
C464       C1009   1.406   1_554  A
C465        C466   1.400   1_655  A
C465        N472   1.439       .  S
C466        C467   1.409       .  A
C466        H471   1.079       .  S
C467       C1014   1.418   1_554  A
C468       C1013   1.418       .  A
C468        N469   1.432       .  S
N469        O473   1.262       .  A
N469        O474   1.263       .  A
N472        O475   1.261       .  A
N472       O1022   1.263       .  A
O476       N1018   1.263       .  A
C477        C482   1.412   1_455  A
C477       C1024   1.401       .  A
C477        H484   1.083       .  S
C478        C479   1.402       .  A
C478       C1023   1.401       .  A
C479        C480   1.391       .  A
C479        N486   1.435   1_554  S
C480        C481   1.416   1_455  A
C480        H485   1.077   1_554  S
C481       C1028   1.428       .  A
C482       C1027   1.428       .  A
C482        N483   1.436       .  S
N483        O487   1.263       .  A
N483       O1034   1.261       .  A
N486        O490   1.263   1_556  A
N486       O1035   1.261       .  A
O488       N1029   1.261       .  A
O489       N1032   1.261       .  A
C491        C492   1.403       .  A
C491        C496   1.400       .  A
C491        H498   1.083       .  S
C492       C1039   1.417   1_554  A
C493        C494   1.406       .  A
C493       C1038   1.417       .  A
C493        N500   1.438       .  S
C494       C1041   1.404       .  A
C494        H499   1.083       .  S
C495        C496   1.414       .  A
C495       C1040   1.404   1_554  A
C496        N497   1.438       .  S
N497        O501   1.263       .  A
N497        O502   1.262       .  A
N500        O503   1.262       .  A
N500        O504   1.263       .  A
C505        C510   1.404       .  A
C505       C1052   1.405       .  A
C505        H512   1.077       .  S
C506        C507   1.416       .  A
C506       C1051   1.405   1_556  A
C507        C508   1.402       .  A
C507        N514   1.434       .  S
C508        C509   1.403       .  A
C508        H513   1.084       .  S
C509       C1056   1.414   1_556  A
C510       C1055   1.414       .  A
C510       N1057   1.441       .  S
N511       C1056   1.441       .  S
N511        O516   1.263       .  A
N511       O1061   1.263       .  A
N514        O518   1.263       .  A
N514       O1063   1.262       .  A
O515       N1057   1.263       .  A
O517       N1060   1.262       .  A
C519        C520   1.410   1_554  A
C519        C524   1.403       .  A
C519        H526   1.080       .  S
C520       C1067   1.418       .  A
C521        C522   1.403       .  A
C521       C1066   1.418       .  A
C521        N528   1.432       .  S
C522       C1069   1.403       .  A
C522        H527   1.084       .  S
C523        C524   1.415       .  A
C523       C1068   1.403   1_554  A
C524        N525   1.445       .  S
N525        O529   1.263       .  A
N525        O530   1.262       .  A
N528        O531   1.262       .  A
N528       O1078   1.263   1_545  A
O532       N1074   1.263   1_565  A
C533        C538   1.393       .  A
C533       C1080   1.393       .  A
C533        H540   1.085       .  S
C534        C535   1.413   1_565  A
C534       C1079   1.393   1_554  A
C535        C536   1.412       .  A
C535        N542   1.443       .  S
C536        C537   1.415       .  A
C536        H541   1.078       .  S
C537       C1084   1.428   1_544  A
C538       C1083   1.428   1_565  A
C538        N539   1.429       .  S
N539        O543   1.262       .  A
N539       O1090   1.263       .  A
N542        O546   1.263       .  A
N542       O1091   1.263       .  A
O544       N1085   1.263   1_554  A
O545       N1088   1.263       .  A
O547       Cu555   2.003       .  S
O547        C557   1.276       .  A
O548       Cu555   2.023       .  S
O548        C558   1.279       .  A
O549       Cu555   2.023       .  S
O549        C559   1.279       .  A
O550       Cu555   2.005       .  S
O550        C560   1.276       .  A
O551       Cu556   2.017       .  S
O551        C560   1.278       .  A
O552       Cu556   1.997       .  S
O552        C559   1.276       .  A
O553       Cu556   1.999       .  S
O553        C558   1.276       .  A
O554       Cu556   2.017       .  S
O554        C557   1.278       .  A
Cu555      Cu556   2.378       .  S
C557        C748   1.466       .  S
C558        C636   1.466       .  S
C559        C646   1.466       .  S
C560        C738   1.465       .  S
N561        N562   1.323       .  A
N561        C565   1.342       .  A
N561       Cu569   2.069       .  S
N562        C563   1.347       .  A
N562       Cu568   2.079       .  S
C563        C564   1.383       .  A
C563        H566   1.082       .  S
C564        C824   1.464       .  S
C564        C565   1.380       .  A
C565        H567   1.082       .  S
Cu569       N579   2.067       .  S
Cu570       N572   2.073       .  S
Cu570       N578   2.072       .  S
N571        N572   1.323       .  A
N571        C575   1.348       .  A
N572        C573   1.343       .  A
C573        C574   1.381       .  A
C573        H576   1.082       .  S
C574        C825   1.465       .  S
C574        C575   1.383       .  A
C575        H577   1.082       .  S
N578        C582   1.343       .  A
N579        C580   1.346       .  A
C580        C581   1.384       .  A
C580        H583   1.082       .  S
C581       C1080   1.476       .  S
C582        H584   1.083       .  S
N585        N586   1.325       .  A
N585        C589   1.344       .  A
N585       Cu593   2.085       .  S
N586        C587   1.348       .  A
C587        C588   1.382       .  A
C587        H590   1.082       .  S
C588        C684   1.467       .  S
C588        C589   1.382       .  A
C589        H591   1.082       .  S
Cu592       N595   2.080       .  S
Cu593       N603   2.082       .  S
Cu594       N596   2.049       .  S
Cu594       N602   2.049       .  S
N595        N596   1.321       .  A
N595        C599   1.348       .  A
N596        C597   1.339       .  A
C597        C598   1.377       .  A
C597        H600   1.082       .  S
C598        C685   1.462       .  S
C598        C599   1.386       .  A
C599        H601   1.082       .  S
N602        C606   1.337       .  A
N603        C604   1.348       .  A
C604        H607   1.080       .  S
C605       C1066   1.497   1_565  S
C605        C606   1.387       .  A
C606        H608   1.081       .  S
N609        N610   1.323       .  A
N609        C613   1.344       .  A
N609       Cu617   2.074       .  S
N610        C611   1.347       .  A
N610       Cu616   2.078       .  S
C611        C612   1.382       .  A
C611        H614   1.082       .  S
C612        C796   1.466       .  S
C612        C613   1.382       .  A
C613        H615   1.082       .  S
Cu617       N627   2.074       .  S
Cu618       N620   2.071       .  S
Cu618       N626   2.070       .  S
N619        N620   1.323       .  A
N619        C623   1.347       .  A
N620        C621   1.343       .  A
C621        C622   1.381       .  A
C621        H624   1.082       .  S
C622        C797   1.465       .  S
C622        C623   1.383       .  A
C623        H625   1.082       .  S
N626        C630   1.345       .  A
N627        C628   1.344       .  A
C628        C629   1.387       .  A
C628        H631   1.082       .  S
C629       C1055   1.484       .  S
C630        H632   1.082       .  S
N633        N634   1.324       .  A
N633        C637   1.344       .  A
N633       Cu641   2.075       .  S
N634        C635   1.347       .  A
C635        C636   1.382       .  A
C635        H638   1.082       .  S
C636        C637   1.381       .  A
C637        H639   1.082       .  S
Cu640       N643   2.079       .  S
Cu641       N651   2.074       .  S
Cu642       N644   2.071       .  S
Cu642       N650   2.071       .  S
N643        N644   1.322       .  A
N643        C647   1.347       .  A
N644        C645   1.343       .  A
C645        C646   1.381       .  A
C645        H648   1.082       .  S
C646        C647   1.383       .  A
C647        H649   1.082       .  S
N650        C654   1.343       .  A
N651        C652   1.346       .  A
C652        H655   1.082       .  S
C653       C1038   1.483       .  S
C653        C654   1.385       .  A
C654        H656   1.082       .  S
C657        C658   1.383       .  D
C657       C1069   1.489       .  S
C657       C1083   1.532       .  S
C658       C1041   1.493       .  S
C658       C1052   1.507       .  S
O659       Cu667   2.003       .  S
O659        C669   1.276       .  A
O660       Cu667   2.021       .  S
O660        C670   1.278       .  A
O661       Cu667   2.023       .  S
O661        C671   1.279       .  A
O662       Cu667   2.003       .  S
O662        C672   1.276       .  A
O663       Cu668   2.013       .  S
O663        C672   1.278       .  A
O664       Cu668   1.996       .  S
O664        C671   1.275       .  A
O665       Cu668   1.992       .  S
O665        C670   1.275       .  A
O666       Cu668   2.013       .  S
O666        C669   1.277       .  A
Cu667      Cu668   2.378       .  S
C669        C830   1.463       .  S
C670        C690   1.463       .  S
C671        C700   1.466       .  S
C672        C840   1.463       .  S
O673       Cu681   2.005       .  S
O673        C683   1.277       .  A
O674       Cu681   2.029       .  S
O674        C684   1.280       .  A
O675       Cu681   2.016       .  S
O675        C685   1.277       .  A
O676       Cu681   2.000       .  S
O676        C686   1.276       .  A
O677       Cu682   2.018       .  S
O677        C686   1.279       .  A
O678       Cu682   1.993       .  S
O678        C685   1.276       .  A
O679       Cu682   1.994       .  S
O679        C684   1.275       .  A
O680       Cu682   2.008       .  S
O680        C683   1.276       .  A
Cu681      Cu682   2.378       .  S
C683        C724   1.462       .  S
C686        C714   1.465       .  S
N687        N688   1.322       .  A
N687        C691   1.341       .  A
N687       Cu695   2.061       .  S
N688        C689   1.347       .  A
N688       Cu694   2.077       .  S
C689        C690   1.384       .  A
C689        H692   1.082       .  S
C690        C691   1.379       .  A
C691        H693   1.082       .  S
Cu695       N705   2.060       .  S
Cu696       N698   2.079       .  S
Cu696       N704   2.078       .  S
N697        N698   1.324       .  A
N697        C701   1.346       .  A
N698        C699   1.345       .  A
C699        C700   1.382       .  A
C699        H702   1.083       .  S
C700        C701   1.381       .  A
C701        H703   1.082       .  S
N704        C708   1.344       .  A
N705        C706   1.344       .  A
C706        C707   1.380       .  A
C706        H709   1.082       .  S
C707       C1024   1.474       .  S
C708        H710   1.082       .  S
N711        N712   1.326       .  A
N711        C715   1.346       .  A
N711       Cu719   2.087       .  S
N712        C713   1.345       .  A
C713        C714   1.379       .  A
C713        H716   1.082       .  S
C714        C715   1.382       .  A
C715        H717   1.082       .  S
Cu718       N721   2.076       .  S
Cu719       N729   2.084       .  S
Cu720       N722   2.052       .  S
Cu720       N728   2.052       .  S
N721        N722   1.320       .  A
N721        C725   1.346       .  A
N722        C723   1.342       .  A
C723        C724   1.379       .  A
C723        H726   1.082       .  S
C724        C725   1.384       .  A
C725        H727   1.082       .  S
N728        C732   1.336       .  A
N729        C730   1.349       .  A
C730        H733   1.080       .  S
C731       C1013   1.499       .  S
C731        C732   1.388       .  A
C732        H734   1.080       .  S
N735        N736   1.323       .  A
N735        C739   1.346       .  A
N735       Cu743   2.078       .  S
N736        C737   1.345       .  A
C737        C738   1.381       .  A
C737        H740   1.082       .  S
C738        C739   1.382       .  A
C739        H741   1.081       .  S
Cu742       N745   2.075       .  S
Cu743       N753   2.077       .  S
Cu744       N746   2.074       .  S
Cu744       N752   2.074       .  S
N745        N746   1.322       .  A
N745        C749   1.346       .  A
N746        C747   1.345       .  A
C747        C748   1.382       .  A
C747        H750   1.082       .  S
C748        C749   1.382       .  A
C749        H751   1.082       .  S
N752        C756   1.342       .  A
N753        C754   1.348       .  A
C754        H757   1.082       .  S
C755        C999   1.482       .  S
C755        C756   1.385       .  A
C756        H758   1.083       .  S
N759        N760   1.321       .  A
N759        C763   1.342       .  A
N759       Cu767   2.059       .  S
N760        C761   1.347       .  A
N760       Cu766   2.075       .  S
C761        C762   1.383       .  A
C761        H764   1.082       .  S
C762        C809   1.462       .  S
C762        C763   1.380       .  A
C763        H765   1.083       .  S
Cu767       N777   2.059       .  S
Cu768       N770   2.082       .  S
Cu768       N776   2.080       .  S
N769        N770   1.324       .  A
N769        C773   1.345       .  A
N770        C771   1.345       .  A
C771        C772   1.383       .  A
C771        H774   1.082       .  S
C772        C812   1.466       .  S
C772        C773   1.381       .  A
C773        H775   1.081       .  S
N776        C780   1.348       .  A
N777        C778   1.339       .  A
C778        C779   1.385       .  A
C778        H781   1.082       .  S
C779        C982   1.489       .  S
C780        H782   1.081       .  S
C783        C784   1.377       .  D
C783       C1010   1.499       .  S
C783       C1027   1.527       .  S
C784        C985   1.498       .  S
C784        C996   1.499       .  S
O785       Cu793   2.015       .  S
O785        C795   1.278       .  A
O786       Cu793   1.997       .  S
O786        C796   1.276       .  A
O787       Cu793   1.995       .  S
O787        C797   1.276       .  A
O788       Cu793   2.015       .  S
O788        C798   1.278       .  A
O789       Cu794   2.005       .  S
O789        C798   1.277       .  A
O790       Cu794   2.024       .  S
O790        C797   1.279       .  A
O791       Cu794   2.023       .  S
O791        C796   1.279       .  A
O792       Cu794   2.004       .  S
O792        C795   1.276       .  A
Cu793      Cu794   2.378       .  S
C795        C878   1.464       .  S
C798        C888   1.464       .  S
O799       Cu807   2.017       .  S
O799        C809   1.278       .  A
O800       Cu807   1.998       .  S
O800        C810   1.276       .  A
O801       Cu807   2.004       .  S
O801        C811   1.276       .  A
O802       Cu807   2.022       .  S
O802        C812   1.279       .  A
O803       Cu808   1.999       .  S
O803        C812   1.276       .  A
O804       Cu808   2.017       .  S
O804        C811   1.278       .  A
O805       Cu808   2.016       .  S
O805        C810   1.278       .  A
O806       Cu808   1.995       .  S
O806        C809   1.276       .  A
Cu807      Cu808   2.378       .  S
C810        C902   1.462       .  S
C811        C912   1.465       .  S
O813       Cu821   2.013       .  S
O813        C823   1.278       .  A
O814       Cu821   1.992       .  S
O814        C824   1.275       .  A
O815       Cu821   1.991       .  S
O815        C825   1.275       .  A
O816       Cu821   2.009       .  S
O816        C826   1.277       .  A
O817       Cu822   2.004       .  S
O817        C826   1.277       .  A
O818       Cu822   2.026       .  S
O818        C825   1.279       .  A
O819       Cu822   2.023       .  S
O819        C824   1.279       .  A
O820       Cu822   2.007       .  S
O820        C823   1.277       .  A
Cu821      Cu822   2.378       .  S
C823        C854   1.465       .  S
C826        C864   1.461       .  S
N827        N828   1.322       .  A
N827        C831   1.345       .  A
N827       Cu835   2.067       .  S
N828        C829   1.345       .  A
C829        C830   1.382       .  A
C829        H832   1.081       .  S
C830        C831   1.381       .  A
C831        H833   1.082       .  S
Cu834       N837   2.074       .  S
Cu835       N845   2.068       .  S
Cu836       N838   2.075       .  S
Cu836       N844   2.074       .  S
N837        N838   1.323       .  A
N837        C841   1.344       .  A
N838        C839   1.345       .  A
C839        C840   1.382       .  A
C839        H842   1.083       .  S
C840        C841   1.380       .  A
C841        H843   1.082       .  S
N844        C848   1.346       .  A
N845        C846   1.342       .  A
C846        H849   1.082       .  S
C847        C968   1.483       .  S
C847        C848   1.386       .  A
C848        H850   1.082       .  S
N851        N852   1.324       .  A
N851        C855   1.347       .  A
N851       Cu859   2.081       .  S
N852        C853   1.344       .  A
C853        C854   1.380       .  A
C853        H856   1.082       .  S
C854        C855   1.383       .  A
C855        H857   1.082       .  S
Cu858       N861   2.072       .  S
Cu859       N869   2.081       .  S
Cu860       N862   2.061       .  S
Cu860       N868   2.062       .  S
N861        N862   1.321       .  A
N861        C865   1.345       .  A
N862        C863   1.344       .  A
C863        C864   1.380       .  A
C863        H866   1.082       .  S
C864        C865   1.382       .  A
C865        H867   1.082       .  S
N868        C872   1.342       .  A
N869        C870   1.347       .  A
C870        H873   1.082       .  S
C871        C954   1.482       .  S
C871        C872   1.383       .  A
C872        H874   1.082       .  S
N875        N876   1.323       .  A
N875        C879   1.346       .  A
N875       Cu883   2.077       .  S
N876        C877   1.345       .  A
C877        C878   1.380       .  A
C877        H880   1.082       .  S
C878        C879   1.382       .  A
C879        H881   1.082       .  S
Cu882       N885   2.073       .  S
Cu883       N893   2.076       .  S
Cu884       N886   2.071       .  S
Cu884       N892   2.071       .  S
N885        N886   1.322       .  A
N885        C889   1.345       .  A
N886        C887   1.345       .  A
C887        C888   1.382       .  A
C887        H890   1.082       .  S
C888        C889   1.382       .  A
C889        H891   1.082       .  S
N892        C896   1.343       .  A
N893        C894   1.347       .  A
C894        H897   1.082       .  S
C895        C943   1.480       .  S
C895        C896   1.384       .  A
C896        H898   1.082       .  S
N899        N900   1.322       .  A
N899        C903   1.343       .  A
N899       Cu907   2.063       .  S
N900        C901   1.346       .  A
C901        C902   1.383       .  A
C901        H904   1.082       .  S
C902        C903   1.380       .  A
C903        H905   1.083       .  S
Cu906       N909   2.075       .  S
Cu907       N917   2.063       .  S
Cu908       N910   2.080       .  S
Cu908       N916   2.079       .  S
N909        N910   1.324       .  A
N909        C913   1.345       .  A
N910        C911   1.346       .  A
C911        C912   1.383       .  A
C911        H914   1.082       .  S
C912        C913   1.381       .  A
C913        H915   1.081       .  S
N916        C920   1.347       .  A
N917        C918   1.342       .  A
C918        H921   1.083       .  S
C919        C926   1.481       .  S
C919        C920   1.387       .  A
C920        H922   1.082       .  S
C923        C924   1.370       .  D
C923        C929   1.497       .  S
C923        C940   1.502       .  S
C924        C957   1.497       .  S
C924        C971   1.496       .  S
C925        C930   1.398       .  A
C925        H932   1.083       .  S
C926        C927   1.415       .  A
C927        C928   1.407       .  A
C927        N934   1.439       .  S
C928        C929   1.406       .  A
C928        H933   1.082       .  S
C930        N931   1.441       .  S
N931        O935   1.261       .  A
N934        O938   1.263       .  A
C939        C940   1.408       .  A
C939        C944   1.410       .  A
C939        H946   1.082       .  S
C941        C942   1.396       .  A
C941        N948   1.437       .  S
C942        H947   1.084       .  S
C943        C944   1.417       .  A
C944        N945   1.442       .  S
N945        O949   1.263       .  A
N948        O952   1.263       .  A
C953        C958   1.406       .  A
C953        H960   1.083       .  S
C954        C955   1.413       .  A
C955        C956   1.396       .  A
C955        N962   1.436       .  S
C956        C957   1.404       .  A
C956        H961   1.082       .  S
C958        N959   1.432       .  S
N959        O963   1.261       .  A
N959        O964   1.262       .  A
N962        O966   1.263       .  A
C967        C968   1.406       .  A
C967        C972   1.408       .  A
C967        H974   1.083       .  S
C969        C970   1.395       .  A
C969        N976   1.436       .  S
C970        H975   1.081       .  S
C971        C972   1.417       .  A
C972        N973   1.436       .  S
N973        O977   1.261       .  A
N973        O978   1.262       .  A
N976        O980   1.263       .  A
C981        C982   1.405       .  A
C981        C986   1.404       .  A
C981        H988   1.082       .  S
C983        C984   1.401       .  A
C983        N990   1.432       .  S
C984        H989   1.084       .  S
C985        C986   1.420       .  A
C986        N987   1.441       .  S
N987        O991   1.263       .  A
N987        O992   1.260       .  A
N990        O993   1.262       .  A
N990        O994   1.262       .  A
C995        C996   1.408       .  A
C995       C1000   1.412       .  A
C995       H1002   1.083       .  S
C997       N1004   1.429       .  S
C998        C999   1.400       .  A
C999       C1000   1.417       .  A
C1000      N1001   1.440       .  S
N1001      O1006   1.262       .  A
N1004      O1007   1.262       .  A
C1009      C1014   1.405   1_655  A
C1009      H1016   1.085       .  S
C1010      C1011   1.412       .  A
C1011      C1012   1.400   1_655  A
C1011      N1018   1.439       .  S
C1012      C1013   1.409       .  A
C1012      H1017   1.079       .  S
C1014      N1015   1.432       .  S
N1015      O1019   1.262       .  A
N1015      O1020   1.263       .  A
N1018      O1021   1.261       .  A
C1023      C1028   1.412   1_455  A
C1023      H1030   1.083       .  S
C1024      C1025   1.402       .  A
C1025      C1026   1.391       .  A
C1025      N1032   1.435       .  S
C1026      C1027   1.416   1_455  A
C1026      H1031   1.077       .  S
C1028      N1029   1.436       .  S
N1029      O1033   1.263       .  A
N1032      O1036   1.263       .  A
C1037      C1038   1.403       .  A
C1037      C1042   1.400       .  A
C1037      H1044   1.083       .  S
C1039      C1040   1.406       .  A
C1039      N1046   1.438       .  S
C1040      H1045   1.083       .  S
C1041      C1042   1.414       .  A
C1042      N1043   1.438       .  S
N1043      O1047   1.263       .  A
N1043      O1048   1.262       .  A
N1046      O1049   1.262       .  A
N1046      O1050   1.263       .  A
C1051      C1056   1.404       .  A
C1051      H1058   1.080       .  S
C1052      C1053   1.416       .  A
C1053      C1054   1.402       .  A
C1053      N1060   1.434       .  S
C1054      C1055   1.403       .  A
C1054      H1059   1.083       .  S
N1057      O1062   1.263       .  A
N1060      O1064   1.263       .  A
C1065      C1066   1.410       .  A
C1065      C1070   1.403       .  A
C1065      H1072   1.080       .  S
C1067      C1068   1.403       .  A
C1067      N1074   1.432       .  S
C1068      H1073   1.084       .  S
C1069      C1070   1.415       .  A
C1070      N1071   1.445       .  S
N1071      O1075   1.263       .  A
N1071      O1076   1.262       .  A
N1074      O1077   1.262       .  A
C1079      C1084   1.393       .  A
C1079      H1086   1.085       .  S
C1080      C1081   1.413   1_565  A
C1081      C1082   1.412       .  A
C1081      N1088   1.443       .  S
C1082      C1083   1.415       .  A
C1082      H1087   1.078       .  S
C1084      N1085   1.429       .  S
N1085      O1089   1.262       .  A
N1088      O1092   1.263       .  A
