geometry optimzed in LAMMPS
_audit_creation_date              2020-11-30 
_audit_creation_method            'lammps2cif' 
_symmetry_space_group_name_H-M    'P1' 
_symmetry_Int_Tables_number       1 
_symmetry_cell_setting            triclinic 
loop_ 
_symmetry_equiv_pos_as_xyz 
  x,y,z 
_cell_length_a                    39.388738642321776 
_cell_length_b                    39.446939141635916 
_cell_length_c                    39.49320243208372 
_cell_angle_alpha                 89.8203399048875 
_cell_angle_beta                  90.74169316610813 
_cell_angle_gamma                 90.12675680275999 
loop_ 
_atom_site_label 
_atom_site_type_symbol 
_atom_site_fract_x 
_atom_site_fract_y 
_atom_site_fract_z 
_atom_site_charge 
O1          O  0.58484890  0.05826797  0.51400193    -0.75280
O2          O  0.59575520  0.00855658  0.48839567    -0.54190
C3          C  0.60523814  0.03569341  0.50416855     0.78440
O4          O  0.49556394  0.93016595  0.59333231    -0.59890
O5          O  0.46433597  0.97672254  0.60664457    -0.52910
C6          C  0.48154540  0.94993148  0.61469139     0.70460
O7          O  0.58338689  0.92636139  0.51820882    -0.74440
O8          O  0.58737713  0.95476807  0.46897585    -0.55010
C9          C  0.59892412  0.93366129  0.49039244     0.76460
O10         O  0.50104152  0.07123502  0.59129440    -0.59590
O11         O  0.45199092  0.04104103  0.59622451    -0.52710
C12         C  0.47216082  0.06465086  0.60545352     0.73050
Zr13       Zr  0.53314627  0.04781331  0.54231920     2.54710
O14         O  0.57922989  0.03543866  0.58206441    -0.80150
O15         O  0.53041372  0.10943002  0.54282132    -0.93570
Zr16       Zr  0.52781066  0.94385822  0.54348388     2.64680
O17         O  0.57616731  0.94627637  0.58232822    -0.98530
O18         O  0.51388959  0.88373107  0.54534165    -0.80590
O19         O  0.51587098  0.99559349  0.51605068    -0.83940
O20         O  0.51304882  0.99802723  0.56690221    -2.18650
O21         O  0.42406266  0.07504479  0.49355938    -0.67330
O22         O  0.40582079  0.04096354  0.53691110    -0.51900
C23         C  0.40224775  0.06602280  0.51566713     0.71440
O24         O  0.48045069  0.92649812  0.42228950    -0.60240
O25         O  0.53233043  0.95097166  0.41500718    -0.52220
C26         C  0.50779466  0.93114715  0.40571547     0.73240
O27         O  0.39829856  0.94948613  0.49799605    -0.71640
O28         O  0.41963273  0.95377871  0.54964327    -0.50310
C29         C  0.39417198  0.95252913  0.52998741     0.74620
O30         O  0.51229518  0.06601339  0.42012683    -0.66970
O31         O  0.53285633  0.01454310  0.40951950    -0.54160
C32         C  0.53236863  0.04606682  0.40421127     0.73000
Zr33       Zr  0.47146405  0.05008117  0.46504975     2.77540
O34         O  0.43103408  0.04816736  0.41795049    -0.97720
O35         O  0.47132412  0.11133541  0.45735179    -0.78540
Zr36       Zr  0.45552047  0.94818563  0.47297876     2.70070
O37         O  0.41236407  0.94512057  0.42839973    -0.79780
O38         O  0.44790384  0.88773129  0.48282378    -0.98870
Zr39       Zr  0.54013727  0.98949052  0.46338805     2.21500
Zr40       Zr  0.45418755  0.00306291  0.55076941     2.11130
O41         O  0.44193119  0.00370648  0.49109034    -2.47550
O42         O  0.48334921  0.99461062  0.44494509    -0.79580
O43         O  0.47717842  0.05323381  0.52553124    -0.71770
O44         O  0.51519821  0.93962392  0.48507126    -2.32730
O45         O  0.52955012  0.04614490  0.48158715    -2.28940
O46         O  0.46873019  0.94742710  0.53198726    -0.73530
H47         H  0.51790395  0.99956718  0.59079996     0.78470
H48         H  0.52406738  0.91911710  0.47538133     0.79550
H49         H  0.41806572  0.00696249  0.48645884     0.81780
H50         H  0.54348482  0.06320081  0.47104759     0.79390
H51         H  0.52420447  0.87425790  0.52479130     0.42420
H52         H  0.43509871  0.88631769  0.50413740     0.41390
H53         H  0.41294523  0.96773726  0.41752324     0.41070
H54         H  0.41076101  0.03684684  0.42733423     0.39000
H55         H  0.48234118  0.12021315  0.47811565     0.42130
H56         H  0.53597745  0.11621189  0.51943172     0.36920
H57         H  0.58972205  0.05773393  0.58686925     0.43040
H58         H  0.57432940  0.96832054  0.59388292     0.39450
H59         H  0.42399382  0.07200936  0.41465110     0.44370
H60         H  0.55044369  0.11643494  0.55648373     0.43090
H61         H  0.57111223  0.92920130  0.59995978     0.43230
H62         H  0.43148151  0.88055199  0.46510619     0.43590
O63         O  0.07091909  0.58240740  0.49043924    -0.75280
O64         O  0.02855893  0.59963014  0.52452609    -0.54190
C65         C  0.05318271  0.60554600  0.50394794     0.78440
O66         O  0.92474398  0.50895260  0.42421844    -0.59890
O67         O  0.95711475  0.46274235  0.41168247    -0.52910
C68         C  0.93316484  0.48421083  0.40514632     0.70460
O69         O  0.92872503  0.58575881  0.50936801    -0.74440
O70         O  0.96384877  0.58991162  0.55531091    -0.55010
C71         C  0.93793551  0.59920836  0.53796976     0.76460
O72         O  0.06336757  0.49798946  0.41142061    -0.59590
O73         O  0.02704410  0.45318012  0.40914719    -0.52710
C74         C  0.05162057  0.47039273  0.39778615     0.73050
Zr75       Zr  0.04895992  0.53315467  0.46207664     2.54710
O76         O  0.04196148  0.57444537  0.41656941    -0.80150
O77         O  0.11016513  0.53429735  0.45400963    -0.93570
Zr78       Zr  0.94665777  0.53665415  0.47414757     2.64680
O79         O  0.94343848  0.58287251  0.43326595    -0.98530
O80         O  0.88497955  0.53515203  0.47754659    -0.80590
O81         O  0.00066554  0.55828993  0.48933701    -0.83940
O82         O  0.99482280  0.51400809  0.44520389    -2.18650
O83         O  0.07152978  0.41608809  0.50791018    -0.67330
O84         O  0.03376095  0.40572818  0.46468956    -0.51900
C85         C  0.05930565  0.39773149  0.48392348     0.71440
O86         O  0.96149552  0.49955350  0.58446360    -0.60240
O87         O  0.98257937  0.54380747  0.60685459    -0.52220
C88         C  0.96369272  0.51797170  0.61022978     0.73240
O89         O  0.94001098  0.40480713  0.51313149    -0.71640
O90         O  0.96234431  0.40810172  0.46053164    -0.50310
C91         C  0.94471701  0.39343580  0.48290758     0.74620
O92         O  0.07336297  0.49721315  0.59004222    -0.66970
O93         O  0.04966994  0.54982307  0.58846290    -0.54160
C94         C  0.06934347  0.52763955  0.60164992     0.73000
Zr95       Zr  0.05499666  0.46673281  0.53752971     2.77540
O96         O  0.05959399  0.42340791  0.58139170    -0.97720
O97         O  0.11643217  0.47100987  0.53287996    -0.78540
Zr98       Zr  0.95271050  0.46044904  0.54005515     2.70070
O99         O  0.94336712  0.42317479  0.58822703    -0.79780
O100        O  0.89111747  0.46511892  0.53676487    -0.98870
Zr101      Zr  0.00479848  0.54647411  0.54832358     2.21980
Zr102      Zr  0.99716273  0.45568567  0.45940510     2.11130
O103        O  0.00350472  0.44022796  0.51728538    -2.47550
O104        O  0.00425943  0.48661005  0.56086307    -0.79580
O105        O  0.05098516  0.47590349  0.47778327    -0.71770
O106        O  0.95124409  0.52090956  0.53129637    -2.32730
O107        O  0.05463673  0.52447124  0.52212140    -2.28940
O108        O  0.94662944  0.47659540  0.48304083    -0.73530
H109        H  0.99251150  0.51747931  0.42113286     0.78470
H110        H  0.93211093  0.53057415  0.54280238     0.79550
H111        H  0.00457404  0.41601942  0.52067344     0.81780
H112        H  0.07509579  0.53506080  0.53066818     0.79390
H113        H  0.88020809  0.53456669  0.50201673     0.42420
H114        H  0.88597645  0.46976820  0.51263124     0.41390
H115        H  0.96206070  0.42866450  0.60424650     0.41070
H116        H  0.04481939  0.40471511  0.57335067     0.39000
H117        H  0.12041190  0.47344149  0.50835225     0.42130
H118        H  0.12003020  0.53562857  0.47711363     0.36920
H119        H  0.05979801  0.56874426  0.40021906     0.43040
H120        H  0.95570408  0.57446216  0.41332750     0.39450
H121        H  0.08293499  0.41452808  0.57934668     0.44370
H122        H  0.11484382  0.55672892  0.44376913     0.43090
H123        H  0.91932355  0.58337767  0.42595642     0.43230
H124        H  0.88289726  0.44169308  0.54036757     0.43590
O125        O  0.40730294  0.49911534  0.92650446    -0.75280
O126        O  0.38909699  0.53833504  0.96460153    -0.54190
C127        C  0.38463819  0.51834703  0.93888171     0.78440
O128        O  0.47494905  0.43337906  0.07832498    -0.59890
O129        O  0.50759976  0.40826420  0.04009546    -0.52910
C130        C  0.48613465  0.40670371  0.06433490     0.70460
O131        O  0.37998368  0.50218480  0.05575253    -0.74440
O132        O  0.38542180  0.55458931  0.03231353    -0.55010
C133        C  0.36840426  0.53196392  0.04755913     0.76460
O134        O  0.49426259  0.42699456  0.93128746    -0.59590
O135        O  0.53356856  0.41695918  0.97264491    -0.52710
C136        C  0.51966731  0.41043774  0.94398925     0.73050
Zr137      Zr  0.45775051  0.47435491  0.94952923     2.54710
O138        O  0.42251061  0.42443864  0.94046576    -0.80150
O139        O  0.46737975  0.48173276  0.88909943    -0.93570
Zr140      Zr  0.43527137  0.47067627  0.04974916     2.64680
O141        O  0.39578822  0.42434517  0.03872106    -0.98530
O142        O  0.41503633  0.46520148  0.10749512    -0.80590
O143        O  0.42447622  0.49394393  0.99599518    -0.83940
O144        O  0.46704582  0.44861753  0.00252251    -2.18650
O145        O  0.56254726  0.51341468  0.94208248    -0.67330
O146        O  0.57804347  0.47382758  0.98120452    -0.51900
C147        C  0.58443117  0.49412179  0.95633253     0.71440
O148        O  0.48621941  0.58798746  0.08230220    -0.60240
O149        O  0.44706422  0.60203376  0.04119208    -0.52220
C150        C  0.46555330  0.60866145  0.06786738     0.73240
O151        O  0.56607810  0.50444718  0.08479554    -0.71640
O152        O  0.56836986  0.45489274  0.05551800    -0.50310
C153        C  0.58067472  0.47599421  0.07687133     0.74620
O154        O  0.49352868  0.60716344  0.96629717    -0.66970
O155        O  0.44001806  0.59123446  0.95916953    -0.54160
C156        C  0.46159061  0.61432174  0.96267170     0.73000
Zr157      Zr  0.52259081  0.55022992  0.96878612     2.77540
O158        O  0.57194118  0.58565889  0.98130087    -0.97720
O159        O  0.52762571  0.57142773  0.91112947    -0.78540
Zr160      Zr  0.51133504  0.53434724  0.06860683     2.70070
O161        O  0.55331560  0.57543745  0.08822756    -0.79780
O162        O  0.49637870  0.52061966  0.12668455    -0.98870
Zr163      Zr  0.43705612  0.55179651  0.00378987     2.21500
Zr164      Zr  0.52587469  0.46100174  0.01260296     2.11130
O165        O  0.54033661  0.51973994  0.01901697    -2.47550
O166        O  0.49435774  0.56471365  0.01832885    -0.79580
O167        O  0.51346943  0.49040518  0.96148424    -0.71770
O168        O  0.45128286  0.52737488  0.05742191    -2.32730
O169        O  0.46689958  0.53383880  0.95485945    -2.28940
O170        O  0.49498763  0.47794293  0.06124611    -0.73530
H171        H  0.46298731  0.42471290  0.99970780     0.78470
H172        H  0.43832652  0.53745693  0.07525782     0.79550
H173        H  0.56440126  0.52275975  0.02251557     0.81780
H174        H  0.46002747  0.54386582  0.93353067     0.79390
H175        H  0.41876949  0.48780815  0.11754602     0.42420
H176        H  0.50561760  0.49759068  0.13052429     0.41390
H177        H  0.55857219  0.58905448  0.06787249     0.41070
H178        H  0.58234665  0.57621171  0.00217478     0.39000
H179        H  0.51757550  0.55335804  0.89687914     0.42130
H180        H  0.46257129  0.50590829  0.88435046     0.36920
H181        H  0.42062256  0.42228570  0.91559643     0.43040
H182        H  0.40476746  0.41227875  0.01892523     0.39450
H183        H  0.58818605  0.58062430  0.96316973     0.44370
H184        H  0.44857823  0.46928343  0.87786730     0.43090
H185        H  0.39877311  0.40869742  0.05812081     0.43230
H186        H  0.51102469  0.53555041  0.14066886     0.43590
C187        C  0.55889268  0.92339766  0.79671624     0.03140
C188        C  0.53965887  0.92817429  0.76723007    -0.13010
C189        C  0.54428444  0.90767461  0.73905078     0.00640
C190        C  0.56872938  0.88164599  0.74019871    -0.11540
C191        C  0.58879146  0.87638357  0.76963673     0.03130
C192        C  0.58353315  0.89748888  0.79798756    -0.10960
H193        H  0.52190827  0.94913643  0.76564683     0.08720
H194        H  0.57304087  0.86647201  0.71784754     0.06250
H195        H  0.59844439  0.89378171  0.82092464     0.06100
C196        C  0.69205093  0.76963821  0.76875279     0.03140
C197        C  0.71777615  0.77177460  0.74425616    -0.13010
C198        C  0.74380627  0.74737854  0.74293543     0.00640
C199        C  0.74344115  0.72013008  0.76588984    -0.11540
C200        C  0.71862948  0.71779413  0.79094388     0.03130
C201        C  0.69312106  0.74273432  0.79248884    -0.10960
H202        H  0.71760375  0.79254538  0.72623221     0.08720
H203        H  0.76253985  0.70049186  0.76423894     0.06250
H204        H  0.67436845  0.74127673  0.81224612     0.06100
C205        C  0.89486495  0.77915414  0.61098193     0.03140
C206        C  0.90282854  0.74845734  0.59504491    -0.13010
C207        C  0.88284555  0.71943533  0.59970085     0.00640
C208        C  0.85621541  0.72056336  0.62314069    -0.11540
C209        C  0.84900141  0.75062775  0.64080986     0.03130
C210        C  0.86838015  0.77994560  0.63448287    -0.10960
H211        H  0.92441683  0.74749507  0.57836307     0.08720
H212        H  0.84133234  0.69795735  0.62792841     0.06250
H213        H  0.86228996  0.80344355  0.64715546     0.06100
C214        C  0.76617724  0.56177615  0.91722907     0.03140
C215        C  0.76470504  0.59047363  0.89596337    -0.13010
C216        C  0.73353739  0.60052230  0.88072260     0.00640
C217        C  0.70448286  0.58043685  0.88700076    -0.11540
C218        C  0.70676502  0.55099687  0.90697620     0.03130
C219        C  0.73768683  0.54148560  0.92117911    -0.10960
H220        H  0.78775903  0.60451028  0.89161403     0.08720
H221        H  0.67978401  0.58838638  0.87760718     0.06250
H222        H  0.73877417  0.51992264  0.93832288     0.06100
C223        C  0.25109491  0.31075799  0.74744484     0.03140
C224        C  0.27359226  0.28412760  0.75549483    -0.13010
C225        C  0.27450550  0.25464963  0.73573769     0.00640
C226        C  0.25406806  0.25256981  0.70647068    -0.11540
C227        C  0.23187064  0.27903322  0.69768098     0.03130
C228        C  0.22942493  0.30731687  0.71904382    -0.10960
H229        H  0.29029565  0.28615080  0.77742109     0.08720
H230        H  0.25542026  0.23032627  0.69052073     0.06250
H231        H  0.21039746  0.32634315  0.71357038     0.06100
C232        C  0.20656493  0.44982787  0.88352549     0.03140
C233        C  0.23202875  0.47393086  0.88992992    -0.13010
C234        C  0.26251321  0.47325473  0.87195985     0.00640
C235        C  0.26678477  0.44894855  0.84621300    -0.11540
C236        C  0.24121851  0.42483818  0.83950990     0.03130
C237        C  0.21123266  0.42579995  0.85804242    -0.10960
H238        H  0.22947741  0.49119427  0.91105458     0.08720
H239        H  0.29107898  0.44671852  0.83385465     0.06250
H240        H  0.19240931  0.40612282  0.85409554     0.06100
C241        C  0.39659345  0.09783805  0.78703801     0.03140
C242        C  0.41456311  0.09014351  0.75747606    -0.13010
C243        C  0.41187832  0.11097256  0.72864292     0.00640
C244        C  0.38918593  0.13835670  0.72909522    -0.11540
C245        C  0.37019443  0.14574254  0.75789131     0.03130
C246        C  0.37393994  0.12535751  0.78694632    -0.10960
H247        H  0.43099703  0.06821423  0.75737287     0.08720
H248        H  0.38595669  0.15395174  0.70664498     0.06250
H249        H  0.36040566  0.13172746  0.80976817     0.06100
C250        C  0.10314274  0.21801039  0.55773686     0.03140
C251        C  0.09861036  0.24031872  0.52978009    -0.13010
C252        C  0.11227992  0.27336212  0.53020321     0.00640
C253        C  0.13620066  0.28205434  0.55544787    -0.11540
C254        C  0.14481072  0.25872377  0.58067373     0.03130
C255        C  0.12862209  0.22726051  0.58136371    -0.10960
H256        H  0.08259092  0.23346661  0.50851701     0.08720
H257        H  0.14639582  0.30755857  0.55685674     0.06250
H258        H  0.13523453  0.21233257  0.60270957     0.06100
O259        O  0.56312130  0.99938818  0.93126592    -0.75280
O260        O  0.51791110  0.03203561  0.91763257    -0.54190
C261        C  0.54244667  0.01197985  0.90963871     0.78440
O262        O  0.42196895  0.94410486  0.02895682    -0.59890
O263        O  0.46588474  0.91873632  0.05603340    -0.52910
C264        C  0.43701777  0.91767583  0.04051939     0.70460
O265        O  0.43074268  0.01154076  0.93007065    -0.74440
O266        O  0.45827604  0.06205192  0.93052567    -0.55010
C267        C  0.43844046  0.04055816  0.91655203     0.76460
O268        O  0.55582259  0.91508817  0.01251425    -0.59590
O269        O  0.53102736  0.91781146  0.06431590    -0.52710
C270        C  0.54851084  0.90283406  0.04209832     0.73050
Zr271      Zr  0.54635821  0.96998435  0.98163169     2.54710
O272        O  0.54102092  0.92779334  0.93700267    -0.80150
O273        O  0.60764574  0.96220193  0.98271635    -0.93570
Zr274      Zr  0.44332166  0.98242248  0.98550211     2.64680
O275        O  0.43350809  0.93337519  0.94933597    -0.98530
O276        O  0.38209402  0.99050371  0.98185187    -0.80590
O277        O  0.49539848  0.99675345  0.96076958    -0.83940
O278        O  0.49413558  0.95404466  0.00433936    -2.18650
O279        O  0.57795924  0.01401626  0.09619878    -0.67330
O280        O  0.53942592  0.97313290  0.11114825    -0.51900
C281        C  0.56647569  0.99105110  0.11628921     0.71440
O282        O  0.46295269  0.10773478  0.04004528    -0.60240
O283        O  0.46590288  0.10691728  0.98272074    -0.52220
C284        C  0.45594912  0.11999005  0.01087723     0.73240
O285        O  0.45596358  0.02482953  0.11762307    -0.71640
O286        O  0.45063188  0.97570388  0.09293146    -0.50310
C287        C  0.45266085  0.99260259  0.11971756     0.74620
O288        O  0.56829538  0.10127304  0.01583415    -0.66970
O289        O  0.54306085  0.09546860  0.96419295    -0.54160
C290        C  0.56095277  0.11212109  0.98547475     0.73000
Zr291      Zr  0.55855404  0.04629095  0.04701264     2.77540
O292        O  0.57055914  0.08796835  0.09097288    -0.97720
O293        O  0.61909780  0.04312258  0.03581472    -0.78540
Zr294      Zr  0.45754763  0.05080213  0.06022854     2.70070
O295        O  0.44034506  0.09352387  0.10089503    -0.79780
O296        O  0.39602068  0.04464412  0.05776141    -0.98870
Zr297      Zr  0.49999062  0.05531907  0.97288590     2.21500
Zr298      Zr  0.50131448  0.96860322  0.06235439     2.11130
O299        O  0.50987753  0.02670494  0.07742830    -2.47550
O300        O  0.50645305  0.07083586  0.03076996    -0.79580
O301        O  0.55308654  0.98655595  0.03807403    -0.71770
O302        O  0.44896380  0.03994270  0.00076520    -2.32730
O303        O  0.55245048  0.02995612  0.99008427    -2.28940
O304        O  0.44984350  0.99391025  0.04446947    -0.73530
H305        H  0.49179548  0.93021704  0.00094811     0.78470
H306        H  0.42977079  0.05255644  0.99198101     0.79550
H307        H  0.51364731  0.03040624  0.10124713     0.81780
H308        H  0.57142234  0.03886128  0.97765082     0.79390
H309        H  0.37900998  0.01516783  0.97850678     0.42420
H310        H  0.39155849  0.02414204  0.04410999     0.41390
H311        H  0.46154533  0.09963066  0.11313909     0.41070
H312        H  0.55660355  0.08079069  0.11035436     0.39000
H313        H  0.62474333  0.01885073  0.03872797     0.42130
H314        H  0.61703088  0.98519929  0.97905404     0.36920
H315        H  0.51652719  0.92755104  0.93110500     0.43040
H316        H  0.45403802  0.91919541  0.95212060     0.39450
H317        H  0.59421852  0.08327797  0.09827448     0.44370
H318        H  0.61247216  0.94992249  0.96157734     0.43090
H319        H  0.41524701  0.92043711  0.96049484     0.43230
H320        H  0.38973074  0.03809383  0.08102312     0.43590
C321        C  0.24074935  0.81094285  0.75795132     0.03140
C322        C  0.26064483  0.81039870  0.78781896    -0.13010
C323        C  0.25917279  0.78298501  0.81038008     0.00640
C324        C  0.23672869  0.75610366  0.80385086    -0.11540
C325        C  0.21622149  0.75586365  0.77444678     0.03130
C326        C  0.21947654  0.78273579  0.75091825    -0.10960
H327        H  0.27734133  0.83145492  0.79383977     0.08720
H328        H  0.23527142  0.73528524  0.82175631     0.06250
H329        H  0.20532074  0.78180119  0.72727655     0.06100
C330        C  0.38448868  0.80228000  0.97112476     0.03140
C331        C  0.40230241  0.77205665  0.97631963    -0.13010
C332        C  0.39657861  0.74452781  0.95519216     0.00640
C333        C  0.37090102  0.74603307  0.93039100    -0.11540
C334        C  0.35300638  0.77623371  0.92443056     0.03130
C335        C  0.35958079  0.80443035  0.94533746    -0.10960
H336        H  0.42185162  0.77055052  0.99587556     0.08720
H337        H  0.36540292  0.72380624  0.91521678     0.06250
H338        H  0.34685680  0.82829665  0.94039247     0.06100
C339        C  0.22425387  0.97327788  0.63383883     0.03140
C340        C  0.25181356  0.97554285  0.61227622    -0.13010
C341        C  0.27838288  0.95256900  0.61527783     0.00640
C342        C  0.27803101  0.92749153  0.64056303    -0.11540
C343        C  0.25178517  0.92641541  0.66449958     0.03130
C344        C  0.22510112  0.95016883  0.66106674    -0.10960
H345        H  0.25111889  0.99311742  0.59108489     0.08720
H346        H  0.29792416  0.90858906  0.64105602     0.06250
H347        H  0.20338215  0.94882903  0.67754342     0.06100
C348        C  0.09487389  0.59991928  0.72457841     0.03140
C349        C  0.12130436  0.62302569  0.73173859    -0.13010
C350        C  0.12097859  0.64305425  0.76110356     0.00640
C351        C  0.09569548  0.63733919  0.78542475    -0.11540
C352        C  0.07048448  0.61247968  0.78000121     0.03130
C353        C  0.06908519  0.59573569  0.74860744    -0.10960
H354        H  0.14161534  0.62640843  0.71383216     0.08720
H355        H  0.09641272  0.65136536  0.80896679     0.06250
H356        H  0.04828965  0.57843272  0.74341525     0.06100
C357        C  0.75741030  0.19480105  0.24735384     0.03140
C358        C  0.78408438  0.19977878  0.27068734    -0.13010
C359        C  0.80338432  0.22960805  0.26964490     0.00640
C360        C  0.79431719  0.25562135  0.24711094    -0.11540
C361        C  0.76828267  0.25062458  0.22296151     0.03130
C362        C  0.75037991  0.21992926  0.22308833    -0.10960
H363        H  0.78952173  0.18102796  0.29004749     0.08720
H364        H  0.80762100  0.27957678  0.24858065     0.06250
H365        H  0.73047926  0.21559432  0.20437456     0.06100
C366        C  0.94761751  0.27853411  0.40082923     0.03140
C367        C  0.92360005  0.27392447  0.37454355    -0.13010
C368        C  0.92339270  0.24492895  0.35411085     0.00640
C369        C  0.94779816  0.21981737  0.36037107    -0.11540
C370        C  0.97226545  0.22419339  0.38618645     0.03130
C371        C  0.97408856  0.25492560  0.40377940    -0.10960
H372        H  0.90289807  0.29160116  0.37136307     0.08720
H373        H  0.94502947  0.19516574  0.34870592     0.06250
H374        H  0.99422949  0.25837468  0.42213467     0.06100
C375        C  0.70771504  0.40594464  0.10391258     0.03140
C376        C  0.70882934  0.37618700  0.12405247    -0.13010
C377        C  0.73453318  0.35152742  0.11954816     0.00640
C378        C  0.75763005  0.35639589  0.09309965    -0.11540
C379        C  0.76031044  0.38757832  0.07667053     0.03130
C380        C  0.73557556  0.41232151  0.08229229    -0.10960
H381        H  0.68994303  0.37218488  0.14305405     0.08720
H382        H  0.77641374  0.33723852  0.08761367     0.06250
H383        H  0.73801387  0.43655229  0.06956558     0.06100
C384        C  0.62245724  0.05858470  0.29462434     0.03140
C385        C  0.61504871  0.03363274  0.27079666    -0.13010
C386        C  0.62779470  0.03626914  0.23799998     0.00640
C387        C  0.65294469  0.06099083  0.23141719    -0.11540
C388        C  0.66328915  0.08356867  0.25711380     0.03130
C389        C  0.64778372  0.08223112  0.28865045    -0.10960
H390        H  0.59744173  0.01365931  0.27723682     0.08720
H391        H  0.66299777  0.06395228  0.20617678     0.06250
H392        H  0.65413962  0.10078428  0.30794439     0.06100
O393        O  0.89638767  0.55917168  0.00126086    -0.75280
O394        O  0.88453152  0.50798665  0.02374133    -0.54190
C395        C  0.87571008  0.53538548  0.00822808     0.78440
O396        O  0.00338486  0.43541960  0.92698629    -0.59890
O397        O  0.02550332  0.48208676  0.90488411    -0.52910
C398        C  0.01053702  0.45330831  0.90121009     0.70460
O399        O  0.90192591  0.42378504  0.98850547    -0.74440
O400        O  0.89723533  0.44832534  0.04009872    -0.55010
C401        C  0.88702528  0.42778939  0.01741918     0.76460
O402        O  0.97321478  0.57061635  0.91384832    -0.59590
O403        O  0.02791323  0.55251290  0.91574247    -0.52710
C404        C  0.00333534  0.56797036  0.90122402     0.73050
Zr405      Zr  0.94659837  0.55132860  0.96801336     2.54710
O406        O  0.90050348  0.55597373  0.92664833    -0.80150
O407        O  0.94682979  0.61276791  0.97349446    -0.93570
Zr408      Zr  0.95393210  0.44803513  0.96024737     2.64680
O409        O  0.91666834  0.45063776  0.91063262    -0.98530
O410        O  0.95076906  0.38758268  0.94851741    -0.80590
O411        O  0.92784869  0.49549257  0.98403617    -0.83940
O412        O  0.97185082  0.50400067  0.94256732    -2.18650
O413        O  0.06025095  0.57813991  0.02201141    -0.67330
O414        O  0.07399694  0.55376900  0.97157151    -0.51900
C415        C  0.07930646  0.57464745  0.99617097     0.71440
O416        O  0.00216524  0.42250378  0.07865613    -0.60240
O417        O  0.95084533  0.44732037  0.08834730    -0.52220
C418        C  0.97511346  0.42652444  0.09592501     0.73240
O419        O  0.07813890  0.43870414  0.99358129    -0.71640
O420        O  0.08228542  0.48353807  0.95745151    -0.50310
C421        C  0.09263863  0.45542689  0.96948388     0.74620
O422        O  0.97637799  0.55587895  0.09735281    -0.66970
O423        O  0.93217325  0.51913674  0.09142372    -0.54160
C424        C  0.94809586  0.54245659  0.10713630     0.73000
Zr425      Zr  0.01219814  0.54915619  0.04620270     2.77540
O426        O  0.05416516  0.54583190  0.09191290    -0.97720
O427        O  0.00483200  0.60953462  0.05625642    -0.78540
Zr428      Zr  0.02820651  0.44910328  0.03030923     2.70070
O429        O  0.07414350  0.45504695  0.07173658    -0.79780
O430        O  0.03728620  0.38810551  0.02849939    -0.98870
Zr431      Zr  0.94080719  0.48804303  0.04223346     2.21500
Zr432      Zr  0.03003149  0.51154470  0.95936549     2.11130
O433        O  0.04336857  0.50573774  0.01790928    -2.47550
O434        O  0.99827449  0.49242978  0.05994712    -0.79580
O435        O  0.00323368  0.55746750  0.98657787    -0.71770
O436        O  0.96896721  0.44149400  0.01759206    -2.32730
O437        O  0.95540283  0.54493380  0.02799634    -2.28940
O438        O  0.01334727  0.45487892  0.97295235    -0.73530
H439        H  0.96866752  0.50622080  0.91845906     0.78470
H440        H  0.96080015  0.41997374  0.02593912     0.79550
H441        H  0.06737442  0.50853668  0.02215417     0.81780
H442        H  0.94236538  0.56126485  0.04035857     0.79390
H443        H  0.96629985  0.37718654  0.96545151     0.42420
H444        H  0.03686768  0.38244913  0.00415075     0.41390
H445        H  0.06385381  0.46733276  0.09075171     0.41070
H446        H  0.07516349  0.53806574  0.08092453     0.39000
H447        H  0.99994788  0.61922548  0.03359487     0.42130
H448        H  0.94189763  0.61687151  0.99757928     0.36920
H449        H  0.90234886  0.53529260  0.91277009     0.43040
H450        H  0.92102156  0.47297487  0.90011706     0.39450
H451        H  0.05880615  0.56970532  0.09795551     0.44370
H452        H  0.92606806  0.62019487  0.96120390     0.43090
H453        H  0.92589280  0.43386592  0.89475100     0.43230
H454        H  0.06123142  0.38498184  0.03570398     0.43590
C455        C  0.28299430  0.12066820  0.45280038     0.03140
C456        C  0.28647029  0.14036132  0.42271297    -0.13010
C457        C  0.25740480  0.14811269  0.40240671     0.00640
C458        C  0.22576865  0.13589650  0.41259124    -0.11540
C459        C  0.22287096  0.11538953  0.44117431     0.03130
C460        C  0.25058229  0.11061939  0.46262505    -0.10960
H461        H  0.31140134  0.14823985  0.41451277     0.08720
H462        H  0.20334776  0.14096606  0.39722213     0.06250
H463        H  0.24707154  0.09686546  0.48608315     0.06100
C464        C  0.25710428  0.24589788  0.22181248     0.03140
C465        C  0.26289870  0.22611875  0.25124938    -0.13010
C466        C  0.24129588  0.22825710  0.27928319     0.00640
C467        C  0.21222451  0.24896881  0.27709682    -0.11540
C468        C  0.20505562  0.26792466  0.24750299     0.03130
C469        C  0.22866804  0.26755941  0.22104730    -0.10960
H470        H  0.28445595  0.20915751  0.25264829     0.08720
H471        H  0.19547811  0.25051966  0.29855719     0.06250
H472        H  0.22451541  0.28407658  0.19946118     0.06100
C473        C  0.03390810  0.38348041  0.21962125     0.03140
C474        C  0.03277529  0.39961544  0.25151709    -0.13010
C475        C  0.06023770  0.39786406  0.27436624     0.00640
C476        C  0.08637172  0.37496425  0.26838446    -0.11540
C477        C  0.08691037  0.35562958  0.23894396     0.03130
C478        C  0.06132710  0.36060552  0.21402533    -0.10960
H479        H  0.01083941  0.41357746  0.25919356     0.08720
H480        H  0.10698138  0.37247301  0.28670394     0.06250
H481        H  0.06371733  0.34752191  0.19015491     0.06100
C482        C  0.40254927  0.29164971  0.09160055     0.03140
C483        C  0.41382344  0.26386600  0.07318475    -0.13010
C484        C  0.39374058  0.23487691  0.06855592     0.00640
C485        C  0.36525285  0.23157469  0.09053095    -0.11540
C486        C  0.35704400  0.25729720  0.11397771     0.03130
C487        C  0.37467454  0.28822049  0.11283415    -0.10960
H488        H  0.43858933  0.26595102  0.06228070     0.08720
H489        H  0.34976422  0.20906888  0.09107709     0.06250
H490        H  0.36723963  0.30909906  0.12887049     0.06100
C491        C  0.78444119  0.28484726  0.73656026     0.03140
C492        C  0.75856010  0.28465567  0.76089240    -0.13010
C493        C  0.73446888  0.25827642  0.76232844     0.00640
C494        C  0.73541136  0.23240660  0.73792748    -0.11540
C495        C  0.76019638  0.23222125  0.71262631     0.03130
C496        C  0.78481425  0.25848459  0.71215468    -0.10960
H497        H  0.75723110  0.30523201  0.77890563     0.08720
H498        H  0.71680054  0.21214344  0.73870296     0.06250
H499        H  0.80375138  0.25862612  0.69254695     0.06100
C500        C  0.92846472  0.42325372  0.78308374     0.03140
C501        C  0.93658197  0.44312757  0.75502454    -0.13010
C502        C  0.91506863  0.44550269  0.72658299     0.00640
C503        C  0.88849974  0.42082474  0.72416156    -0.11540
C504        C  0.88263788  0.39686903  0.75027670     0.03130
C505        C  0.90219339  0.39917429  0.78036849    -0.10960
H506        H  0.96000371  0.45715359  0.75639630     0.08720
H507        H  0.87272431  0.41869792  0.70184647     0.06250
H508        H  0.89692968  0.38245647  0.80148068     0.06100
C509        C  0.58603639  0.29126311  0.89398468     0.03140
C510        C  0.58064755  0.26376391  0.91573428    -0.13010
C511        C  0.59857335  0.23339625  0.91179260     0.00640
C512        C  0.62284539  0.23092277  0.88603944    -0.11540
C513        C  0.62841918  0.25840077  0.86383296     0.03130
C514        C  0.60977928  0.28843611  0.86795015    -0.10960
H515        H  0.56246756  0.26603813  0.93598777     0.08720
H516        H  0.63678027  0.20752976  0.88281814     0.06250
H517        H  0.61454462  0.30999436  0.85159614     0.06100
C518        C  0.71893494  0.07871863  0.58236843     0.03140
C519        C  0.72162679  0.10694191  0.60431664    -0.13010
C520        C  0.75357872  0.11607219  0.61914827     0.00640
C521        C  0.78237020  0.09697055  0.60953014    -0.11540
C522        C  0.77866174  0.06789270  0.58922418     0.03130
C523        C  0.74717700  0.05897755  0.57643145    -0.10960
H524        H  0.69907051  0.12149433  0.60965140     0.08720
H525        H  0.80764334  0.10496153  0.61673090     0.06250
H526        H  0.74507480  0.03736142  0.55952281     0.06100
C527        C  0.73844741  0.69289823  0.26385091     0.03140
C528        C  0.74606824  0.71981141  0.28564913    -0.13010
C529        C  0.72538808  0.74850222  0.28632750     0.00640
C530        C  0.69705278  0.75057500  0.26454432    -0.11540
C531        C  0.68868019  0.72357164  0.24269700     0.03130
C532        C  0.70926925  0.69437307  0.24305787    -0.10960
H533        H  0.76796917  0.71821447  0.30250259     0.08720
H534        H  0.68100215  0.77283566  0.26529677     0.06250
H535        H  0.70256420  0.67272058  0.22758821     0.06100
C536        C  0.78238085  0.89484505  0.41494789     0.03140
C537        C  0.77679209  0.86931161  0.39072014    -0.13010
C538        C  0.74724768  0.84930583  0.39086916     0.00640
C539        C  0.72192247  0.85679091  0.41428315    -0.11540
C540        C  0.72636130  0.88271311  0.43812775     0.03130
C541        C  0.75689072  0.90128180  0.43882825    -0.10960
H542        H  0.79504483  0.86563705  0.37089986     0.08720
H543        H  0.69722635  0.84492542  0.41179624     0.06250
H544        H  0.75982572  0.92202937  0.45654410     0.06100
C545        C  0.86523729  0.53191189  0.28667943     0.03140
C546        C  0.87811427  0.52669095  0.25406672    -0.13010
C547        C  0.87016020  0.54891674  0.22763766     0.00640
C548        C  0.84605102  0.57413340  0.23242752    -0.11540
C549        C  0.83129516  0.57924877  0.26403179     0.03130
C550        C  0.84217782  0.55894816  0.29161085    -0.10960
H551        H  0.89637583  0.50672161  0.24965469     0.08720
H552        H  0.84026254  0.59137486  0.21177805     0.06250
H553        H  0.83474523  0.56585872  0.31686619     0.06100
C554        C  0.54193260  0.78052392  0.11768777     0.03140
C555        C  0.51243903  0.76032284  0.11832666    -0.13010
C556        C  0.51260262  0.72839577  0.13435973     0.00640
C557        C  0.53947381  0.72025756  0.15674700    -0.11540
C558        C  0.56734444  0.74228793  0.16009005     0.03130
C559        C  0.56915205  0.77098451  0.13924772    -0.10960
H560        H  0.49027430  0.76714635  0.10373379     0.08720
H561        H  0.54033978  0.69562525  0.16893159     0.06250
H562        H  0.59271883  0.78512124  0.13937236     0.06100
C563        C  0.22301851  0.76081113  0.27810734     0.03140
C564        C  0.25324313  0.77996470  0.28162610    -0.13010
C565        C  0.27812563  0.77986141  0.25620883     0.00640
C566        C  0.27229602  0.76053765  0.22684580    -0.11540
C567        C  0.24130465  0.74353004  0.22131303     0.03130
C568        C  0.21722489  0.74328208  0.24742547    -0.10960
H569        H  0.25746016  0.79509355  0.30399811     0.08720
H570        H  0.29210199  0.75886555  0.20821494     0.06250
H571        H  0.19381342  0.72921081  0.24384934     0.06100
C572        C  0.45952849  0.87624948  0.28193855     0.03140
C573        C  0.46635864  0.89154759  0.25064999    -0.13010
C574        C  0.44113882  0.89442105  0.22584779     0.00640
C575        C  0.41079504  0.87619233  0.22894054    -0.11540
C576        C  0.40500243  0.85641948  0.25793578     0.03130
C577        C  0.42855567  0.85808702  0.28519404    -0.10960
H578        H  0.49018105  0.90466477  0.24669274     0.08720
H579        H  0.39159439  0.87777426  0.20909612     0.06250
H580        H  0.42174845  0.84667074  0.30909760     0.06100
C581        C  0.08691408  0.72284823  0.42541055     0.03140
C582        C  0.11224338  0.72426525  0.40050182    -0.13010
C583        C  0.11654393  0.75394310  0.38072603     0.00640
C584        C  0.09560407  0.78227706  0.38709332    -0.11540
C585        C  0.07017805  0.78046811  0.41181638     0.03130
C586        C  0.06610821  0.75076548  0.43034159    -0.10960
H587        H  0.12801280  0.70230373  0.39607845     0.08720
H588        H  0.09971584  0.80583776  0.37360121     0.06250
H589        H  0.04664258  0.74956648  0.44952817     0.06100
C590        C  0.19936911  0.63627217  0.04979946     0.03140
C591        C  0.23043914  0.62036157  0.04352212    -0.13010
C592        C  0.25732306  0.62108775  0.06704073     0.00640
C593        C  0.25601446  0.64469994  0.09339804    -0.11540
C594        C  0.22619662  0.66321777  0.09914242     0.03130
C595        C  0.19733287  0.65775716  0.07827344    -0.10960
H596        H  0.23211520  0.60395340  0.02174439     0.08720
H597        H  0.27772458  0.64816794  0.11007495     0.06250
H598        H  0.17340036  0.66856755  0.08563465     0.06100
O599        O  0.01889510  0.91876936  0.44172090    -0.75280
O600        O  0.97506792  0.90368712  0.47607036    -0.54190
C601        C  0.99843240  0.89713517  0.45432960     0.78440
O602        O  0.07567333  0.99367269  0.58554613    -0.59890
O603        O  0.09176844  0.03773138  0.55156854    -0.52910
C604        C  0.09739914  0.01543830  0.57500503     0.70460
O605        O  0.99263131  0.91347895  0.57749486    -0.74440
O606        O  0.94644800  0.91272873  0.54239348    -0.55010
C607        C  0.96453578  0.90024829  0.56640431     0.76460
O608        O  0.09226441  0.00812971  0.45065980    -0.59590
O609        O  0.09231219  0.05151197  0.48854536    -0.52710
C610        C  0.10477445  0.03562073  0.46375755     0.73050
Zr611      Zr  0.04237526  0.97084881  0.46231008     2.54710
O612        O  0.08985757  0.93194507  0.46960374    -0.80150
O613        O  0.04971267  0.97190718  0.40115526    -0.93570
Zr614      Zr  0.02557584  0.96561794  0.56403910     2.64680
O615        O  0.06460951  0.91827606  0.57088673    -0.98530
O616        O  0.01856221  0.96912785  0.62508967    -0.80590
O617        O  0.01377870  0.94497807  0.50916589    -0.83940
O618        O  0.05590316  0.98907496  0.51718906    -2.18650
O619        O  0.00426060  0.08031874  0.43619105    -0.67330
O620        O  0.03412973  0.09951818  0.48225445    -0.51900
C621        C  0.01900909  0.10391781  0.45328616     0.71440
O622        O  0.90848042  0.00426802  0.56631921    -0.60240
O623        O  0.89775252  0.97270001  0.51959021    -0.52220
C624        C  0.88824093  0.99095176  0.54472702     0.73240
O625        O  0.98151948  0.09660255  0.56342725    -0.71640
O626        O  0.03568377  0.08062637  0.56504776    -0.50310
C627        C  0.01326328  0.10328870  0.56772035     0.74620
O628        O  0.91625665  0.00034275  0.43064838    -0.66970
O629        O  0.91556951  0.94988810  0.45876139    -0.54160
C630        C  0.90398027  0.97028268  0.43644633     0.73000
Zr631      Zr  0.96577453  0.03485494  0.45238844     2.77540
O632        O  0.92008183  0.07623317  0.44885799    -0.97720
O633        O  0.96736172  0.03723924  0.39083508    -0.78540
Zr634      Zr  0.95672167  0.03929249  0.55429007     2.70070
O635        O  0.90892582  0.07828854  0.55297959    -0.79780
O636        O  0.95639969  0.04365500  0.61574467    -0.98870
Zr637      Zr  0.95525743  0.95649287  0.50257053     2.21500
Zr638      Zr  0.04096538  0.04724897  0.51600169     2.11130
O639        O  0.98247939  0.06051172  0.50503554    -2.47550
O640        O  0.93955459  0.01458353  0.50142531    -0.79580
O641        O  0.02541603  0.02741076  0.46108755    -0.71770
O642        O  0.96829229  0.97963038  0.55674109    -2.32730
O643        O  0.98273066  0.97787009  0.45355713    -2.28940
O644        O  0.01397821  0.02489544  0.56437322    -0.73530
H645        H  0.07997460  0.98526311  0.51981391     0.78470
H646        H  0.95580557  0.96882925  0.57465075     0.79550
H647        H  0.97795681  0.08442583  0.50341517     0.81780
H648        H  0.97534502  0.96649937  0.43320986     0.79390
H649        H  0.99373906  0.97050383  0.62827201     0.42420
H650        H  0.97964289  0.05111991  0.62199548     0.41390
H651        H  0.91272592  0.09266402  0.53283247     0.41070
H652        H  0.92206341  0.08976939  0.46975376     0.39000
H653        H  0.98805389  0.02451702  0.38493841     0.42130
H654        H  0.02671478  0.96799576  0.39155637     0.36920
H655        H  0.08957300  0.91797166  0.44891479     0.43040
H656        H  0.08076875  0.92078308  0.55210274     0.39450
H657        H  0.92646653  0.09172978  0.43026071     0.44370
H658        H  0.06235786  0.95093968  0.39606656     0.43090
H659        H  0.07794205  0.92346611  0.59160152     0.43230
H660        H  0.94197087  0.06356203  0.62027959     0.43590
C661        C  0.05127601  0.81994151  0.45584786    -0.20300
C662        C  0.04916937  0.80976400  0.42186046    -0.06860
C663        C  0.02441478  0.82455956  0.40028256     0.14000
C664        C  0.00424405  0.85112784  0.41261219    -0.20350
C665        C  0.00751461  0.86215129  0.44629521    -0.06870
C666        C  0.03067248  0.84568305  0.46834989     0.13990
C667        C  0.03540886  0.85689452  0.50462160    -0.23700
H668        H  0.06964196  0.80788606  0.47263987     0.15280
H669        H  0.98716981  0.86452679  0.39551554     0.15310
C670        C  0.01916207  0.81232958  0.36453869    -0.23650
H671        H  0.05431706  0.84101905  0.51843358     0.05520
H672        H  0.01089276  0.85496995  0.51805390     0.08750
H673        H  0.04454387  0.88350623  0.50543197     0.08750
H674        H  0.01306758  0.78482781  0.36468197     0.08730
H675        H  0.04248115  0.81671950  0.34973520     0.08730
H676        H  0.99793773  0.82587656  0.35162561     0.05510
C677        C  0.22272357  0.69093993  0.19092061    -0.20300
C678        C  0.23465251  0.72455132  0.18899879    -0.06860
C679        C  0.23940341  0.73919742  0.15641472     0.14000
C680        C  0.23503524  0.71901492  0.12727410    -0.20350
C681        C  0.22486727  0.68504426  0.12964504    -0.06870
C682        C  0.21742216  0.67125897  0.16169012     0.13990
C683        C  0.20423332  0.63556115  0.16500035    -0.23700
H684        H  0.21823378  0.67968628  0.21552454     0.15280
H685        H  0.24018169  0.72960479  0.10249490     0.15310
C686        C  0.24763079  0.77629408  0.15179976    -0.23650
H687        H  0.19918359  0.62876545  0.19177460     0.05520
H688        H  0.22310116  0.61744356  0.15511303     0.08750
H689        H  0.18012244  0.63292010  0.15034454     0.08750
H690        H  0.27379989  0.78204417  0.16054649     0.08730
H691        H  0.22927035  0.79197012  0.16595421     0.08730
H692        H  0.24598753  0.78394464  0.12473448     0.05510
C693        C  0.16215827  0.76421651  0.29598955    -0.20300
C694        C  0.19651327  0.75982684  0.30541147    -0.06860
C695        C  0.20410176  0.75218562  0.33992867     0.14000
C696        C  0.17762044  0.75058947  0.36371733    -0.20350
C697        C  0.14350399  0.75570654  0.35422848    -0.06870
C698        C  0.13573185  0.76168957  0.31963133     0.13990
C699        C  0.09947720  0.76378014  0.30713103    -0.23700
H700        H  0.15581808  0.76940838  0.26970356     0.15280
H701        H  0.18358372  0.74520947  0.39006043     0.15310
C702        C  0.23962043  0.74377184  0.35189057    -0.23650
H703        H  0.09790942  0.76602752  0.27911275     0.05520
H704        H  0.08684473  0.78627582  0.31788255     0.08750
H705        H  0.08549868  0.74051016  0.31462272     0.08750
H706        H  0.25591003  0.76665826  0.35176018     0.08730
H707        H  0.25064407  0.72390312  0.33552633     0.08730
H708        H  0.23988649  0.73397320  0.37829118     0.05510
C709        C  0.34172142  0.78282710  0.25667249    -0.20300
C710        C  0.31047934  0.79979728  0.25968143    -0.06860
C711        C  0.31076389  0.83562345  0.26267666     0.14000
C712        C  0.34196086  0.85324460  0.26313466    -0.20350
C713        C  0.37302813  0.83621867  0.26027645    -0.06870
C714        C  0.37285029  0.80058053  0.25667637     0.13990
C715        C  0.40541957  0.78144467  0.25145955    -0.23700
H716        H  0.34169262  0.75552849  0.25362079     0.15280
H717        H  0.34213452  0.88065270  0.26501275     0.15310
C718        C  0.27828617  0.85571603  0.26341441    -0.23650
H719        H  0.40082160  0.75383446  0.24830293     0.05520
H720        H  0.42261761  0.78502663  0.27364621     0.08750
H721        H  0.41812743  0.79096529  0.22834285     0.08750
H722        H  0.26409774  0.85002447  0.28679043     0.08730
H723        H  0.26231086  0.84949001  0.24090291     0.08730
H724        H  0.28325011  0.88344255  0.26306763     0.05510
C725        C  0.81216035  0.95137241  0.41665238    -0.20300
C726        C  0.81413733  0.91572358  0.41406546    -0.06860
C727        C  0.84661162  0.90053332  0.41202519     0.14000
C728        C  0.87555027  0.92117700  0.41172050    -0.20350
C729        C  0.87388587  0.95615527  0.41838063    -0.06870
C730        C  0.84166298  0.97161260  0.41995394     0.13990
C731        C  0.83836924  0.00882988  0.42749558    -0.23700
H732        H  0.78743382  0.96324838  0.41796648     0.15280
H733        H  0.90030356  0.90918106  0.41105096     0.15310
C734        C  0.85173666  0.86261935  0.41474197    -0.23650
H735        H  0.81137377  0.01685861  0.42808139     0.05520
H736        H  0.85137816  0.02382900  0.40766060     0.08750
H737        H  0.85006923  0.01455990  0.45256537     0.08750
H738        H  0.84425165  0.84973367  0.39095880     0.08730
H739        H  0.83696735  0.85228738  0.43622288     0.08730
H740        H  0.87879262  0.85608605  0.41959061     0.05510
C741        C  0.62650016  0.73400672  0.23654191    -0.20300
C742        C  0.65736889  0.72559549  0.22110733    -0.06860
C743        C  0.65796433  0.72157984  0.18545939     0.14000
C744        C  0.62773071  0.72539562  0.16652386    -0.20350
C745        C  0.59707167  0.73392354  0.18201002    -0.06870
C746        C  0.59652000  0.73868336  0.21738940     0.13990
C747        C  0.56470252  0.75013830  0.23471024    -0.23700
H748        H  0.62602186  0.73762942  0.26372792     0.15280
H749        H  0.62816263  0.72284137  0.13920731     0.15310
C750        C  0.69057654  0.71553656  0.16683615    -0.23650
H751        H  0.56880912  0.75335590  0.26239883     0.05520
H752        H  0.54424755  0.73110766  0.23080141     0.08750
H753        H  0.55635639  0.77487759  0.22402255     0.08750
H754        H  0.70101958  0.69022970  0.17313903     0.08730
H755        H  0.70943369  0.73543061  0.17361171     0.08730
H756        H  0.68660647  0.71635044  0.13894491     0.05510
C757        C  0.75192148  0.63291901  0.27853531    -0.20300
C758        C  0.76162528  0.66349696  0.26319636    -0.06860
C759        C  0.79429880  0.66658420  0.24942273     0.14000
C760        C  0.81704757  0.63953518  0.25254626    -0.20350
C761        C  0.80754746  0.60848851  0.26744452    -0.06870
C762        C  0.77433393  0.60515702  0.28048978     0.13990
C763        C  0.76187367  0.57228951  0.29537875    -0.23700
H764        H  0.72671465  0.63083417  0.28904600     0.15280
H765        H  0.84231871  0.64235763  0.24235158     0.15310
C766        C  0.80482661  0.69802796  0.23038113    -0.23650
H767        H  0.73459178  0.57365108  0.30201566     0.05520
H768        H  0.77623630  0.56636814  0.31893722     0.08750
H769        H  0.76496463  0.55144452  0.27685935     0.08750
H770        H  0.80476997  0.72031676  0.24741856     0.08730
H771        H  0.78688634  0.70255465  0.20891171     0.08730
H772        H  0.83073728  0.69558066  0.21989720     0.05510
C773        C  0.72487726  0.76626823  0.34611591    -0.20300
C774        C  0.73162549  0.77461375  0.31239573    -0.06860
C775        C  0.74487977  0.80682355  0.30450751     0.14000
C776        C  0.74907771  0.83081097  0.33044248    -0.20350
C777        C  0.74159385  0.82289460  0.36438515    -0.06870
C778        C  0.73009926  0.78969645  0.37232378     0.13990
C779        C  0.72493621  0.77786489  0.40828259    -0.23700
H780        H  0.71558059  0.74104696  0.35194411     0.15280
H781        H  0.75827583  0.85591582  0.32410360     0.15310
C782        C  0.75550231  0.81545873  0.26900326    -0.23650
H783        H  0.72065180  0.75004953  0.40958561     0.05520
H784        H  0.70231304  0.78991555  0.41934465     0.08750
H785        H  0.74780944  0.78371803  0.42392181     0.08750
H786        H  0.73330155  0.81394268  0.25149929     0.08730
H787        H  0.77521659  0.79730684  0.26067609     0.08730
H788        H  0.76627891  0.84145123  0.26736482     0.05510
C789        C  0.84736227  0.03462067  0.53318240    -0.20300
C790        C  0.85340465  0.00263584  0.54762162    -0.06860
C791        C  0.83369436  0.99158489  0.57496782     0.14000
C792        C  0.81037068  0.01401125  0.58929408    -0.20350
C793        C  0.80710952  0.04740093  0.57714134    -0.06870
C794        C  0.82489203  0.05742951  0.54803881     0.13990
C795        C  0.82045819  0.09231635  0.53296787    -0.23700
H796        H  0.86294825  0.04311181  0.51233667     0.15280
H797        H  0.79473205  0.00562589  0.61011110     0.15310
C798        C  0.83806346  0.95641716  0.58925963    -0.23650
H799        H  0.83647944  0.09603237  0.51031089     0.05520
H800        H  0.82780575  0.11176177  0.55197490     0.08750
H801        H  0.79354275  0.09618188  0.52522506     0.08750
H802        H  0.86436712  0.95301757  0.59909334     0.08730
H803        H  0.83302209  0.93747852  0.56904350     0.08730
H804        H  0.82026722  0.95147939  0.61030060     0.05510
C805        C  0.77927488  0.17465505  0.69418084    -0.20300
C806        C  0.76009394  0.20383086  0.68733546    -0.06860
C807        C  0.73845580  0.20391439  0.65850926     0.14000
C808        C  0.73767486  0.17566458  0.63651878    -0.20350
C809        C  0.75693931  0.14613758  0.64305563    -0.06870
C810        C  0.77763935  0.14574671  0.67306327     0.13990
C811        C  0.79638210  0.11445296  0.68485880    -0.23700
H812        H  0.79496258  0.17412918  0.71693542     0.15280
H813        H  0.72158829  0.17669362  0.61409584     0.15310
C814        C  0.71568481  0.23373786  0.65125137    -0.23650
H815        H  0.80462357  0.11662725  0.71177346     0.05520
H816        H  0.81974633  0.11078423  0.67005192     0.08750
H817        H  0.77966173  0.09183508  0.68290829     0.08750
H818        H  0.73125882  0.25699749  0.64814488     0.08730
H819        H  0.69795309  0.23735139  0.67257047     0.08730
H820        H  0.70030778  0.23000575  0.62778203     0.05510
C821        C  0.67332113  0.25697666  0.77866829    -0.20300
C822        C  0.70766878  0.25791450  0.78887385    -0.06860
C823        C  0.71565369  0.25724591  0.82400119     0.14000
C824        C  0.68926653  0.25670783  0.84773813    -0.20350
C825        C  0.65505523  0.25674495  0.83746623    -0.06870
C826        C  0.64698261  0.25645043  0.80248070     0.13990
C827        C  0.61062467  0.25484669  0.79025086    -0.23700
H828        H  0.66708332  0.25689874  0.75185475     0.15280
H829        H  0.69534085  0.25665054  0.87459007     0.15310
C830        C  0.75186536  0.25581145  0.83674681    -0.23650
H831        H  0.60881973  0.25359473  0.76219076     0.05520
H832        H  0.59668804  0.27771034  0.79852415     0.08750
H833        H  0.59816170  0.23189862  0.80074949     0.08750
H834        H  0.76549076  0.27954235  0.83042250     0.08730
H835        H  0.76504032  0.23391699  0.82523905     0.08730
H836        H  0.75323011  0.25275057  0.86470059     0.05510
C837        C  0.79919564  0.34701789  0.73678109    -0.20300
C838        C  0.81043727  0.31310568  0.73737921    -0.06860
C839        C  0.84562974  0.30713087  0.74259862     0.14000
C840        C  0.86828971  0.33480072  0.74654119    -0.20350
C841        C  0.85704074  0.36865574  0.74565564    -0.06870
C842        C  0.82182976  0.37466147  0.74090019     0.13990
C843        C  0.80768311  0.41010435  0.74181696    -0.23700
H844        H  0.77227399  0.35190264  0.73360151     0.15280
H845        H  0.89512260  0.32996465  0.75053813     0.15310
C846        C  0.85934056  0.27161708  0.74567411    -0.23650
H847        H  0.77952692  0.41011318  0.73987432     0.05520
H848        H  0.81740123  0.42528767  0.72036127     0.08750
H849        H  0.81507070  0.42246716  0.76604278     0.08750
H850        H  0.85576907  0.25790097  0.72144168     0.08730
H851        H  0.84602787  0.25782358  0.76616706     0.08730
H852        H  0.88693352  0.27154922  0.75183770     0.05510
C853        C  0.31690539  0.24454758  0.20054738    -0.20300
C854        C  0.28186387  0.24554216  0.19290723    -0.06860
C855        C  0.27184195  0.24758763  0.15809843     0.14000
C856        C  0.29667193  0.25174711  0.13293949    -0.20350
C857        C  0.33142042  0.25161159  0.14101738    -0.06870
C858        C  0.34156006  0.24670535  0.17513253     0.13990
C859        C  0.37855619  0.24334895  0.18475519    -0.23700
H860        H  0.32529782  0.24275220  0.22670971     0.15280
H861        H  0.28883502  0.25449330  0.10665633     0.15310
C862        C  0.23556915  0.24373924  0.14599600    -0.23650
H863        H  0.38212448  0.23846663  0.21228443     0.05520
H864        H  0.39239926  0.26699157  0.17839079     0.08750
H865        H  0.38983805  0.22181797  0.17079167     0.08750
H866        H  0.22614750  0.26833752  0.13589683     0.08730
H867        H  0.21839527  0.23440812  0.16594893     0.08730
H868        H  0.23429773  0.22464010  0.12542169     0.05510
C869        C  0.17751883  0.32369713  0.23528393    -0.20300
C870        C  0.17372402  0.28931204  0.24394491    -0.06860
C871        C  0.14035639  0.27586518  0.24648137     0.14000
C872        C  0.11206427  0.29753211  0.24223187    -0.20350
C873        C  0.11618039  0.33216199  0.23490993    -0.06870
C874        C  0.14933486  0.34511725  0.23068683     0.13990
C875        C  0.15500503  0.38179634  0.22148078    -0.23700
H876        H  0.20285338  0.33403471  0.23255446     0.15280
H877        H  0.08664603  0.28766576  0.24579000     0.15310
C878        C  0.13429944  0.23864678  0.25278621    -0.23650
H879        H  0.18233357  0.38750940  0.21784161     0.05520
H880        H  0.14568613  0.39859608  0.24180092     0.08750
H881        H  0.14123640  0.38774626  0.19748703     0.08750
H882        H  0.14382456  0.23130880  0.27827804     0.08730
H883        H  0.14737402  0.22343831  0.23328395     0.08730
H884        H  0.10683595  0.23223372  0.25158544     0.05510
C885        C  0.13180717  0.08882023  0.44903280    -0.20300
C886        C  0.13450028  0.05321723  0.45007071    -0.06860
C887        C  0.16663888  0.03808368  0.44777528     0.14000
C888        C  0.19521655  0.05914055  0.44453688    -0.20350
C889        C  0.19227328  0.09474765  0.44568935    -0.06870
C890        C  0.16023507  0.10974091  0.44862259     0.13990
C891        C  0.15539937  0.14734898  0.45366300    -0.23700
H892        H  0.10727504  0.10033164  0.45256134     0.15280
H893        H  0.22000692  0.04781668  0.44165303     0.15310
C894        C  0.17096706  0.00029011  0.45055578    -0.23650
H895        H  0.14007591  0.15175366  0.47665968     0.05520
H896        H  0.14204508  0.15828333  0.43132069     0.08750
H897        H  0.17963211  0.16125567  0.45734280     0.08750
H898        H  0.15661432  0.98763770  0.42977228     0.08730
H899        H  0.16130713  0.99125071  0.47529966     0.08730
H900        H  0.19806448  0.99282233  0.44880161     0.05510
C901        C  0.26835438  0.20132070  0.36911393    -0.20300
C902        C  0.25857526  0.16702424  0.36945051    -0.06860
C903        C  0.24537879  0.15254911  0.33904508     0.14000
C904        C  0.24041140  0.17306046  0.31016000    -0.20350
C905        C  0.24850581  0.20764591  0.31039836    -0.06870
C906        C  0.26364175  0.22169376  0.33989746     0.13990
C907        C  0.27479344  0.25819778  0.34046170    -0.23700
H908        H  0.27854656  0.21251570  0.39212734     0.15280
H909        H  0.22967537  0.16212390  0.28725354     0.15310
C910        C  0.23719537  0.11520157  0.33645394    -0.23650
H911        H  0.28654456  0.26517156  0.36519892     0.05520
H912        H  0.25261314  0.27496941  0.33586222     0.08750
H913        H  0.29381771  0.26260975  0.32039907     0.08750
H914        H  0.21515343  0.10831323  0.35217703     0.08730
H915        H  0.25958817  0.10008469  0.34463997     0.08730
H916        H  0.23062485  0.10784199  0.31004868     0.05510
C917        C  0.96781717  0.40394642  0.82952110    -0.20300
C918        C  0.94786231  0.42969754  0.81495069    -0.06860
C919        C  0.95014683  0.46291269  0.82844311     0.14000
C920        C  0.97463975  0.47026737  0.85317214    -0.20350
C921        C  0.99375043  0.44461215  0.86867407    -0.06870
C922        C  0.98994359  0.41080025  0.85705223     0.13990
C923        C  0.00968247  0.38210261  0.87299319    -0.23700
H924        H  0.96615576  0.37853356  0.81928100     0.15280
H925        H  0.97639617  0.49598822  0.86255325     0.15310
C926        C  0.92552446  0.49082671  0.81948153    -0.23650
H927        H  0.00515719  0.35783815  0.85945490     0.05520
H928        H  0.00194692  0.37831043  0.89962824     0.08750
H929        H  0.03726718  0.38784234  0.87223617     0.08750
H930        H  0.90613891  0.48314649  0.80042184     0.08730
H931        H  0.93967203  0.51334406  0.81035699     0.08730
H932        H  0.91168797  0.49842848  0.84255472     0.05510
C933        C  0.89458245  0.55173875  0.13574609    -0.20300
C934        C  0.93032665  0.55307722  0.13797349    -0.06860
C935        C  0.94620620  0.55452545  0.17010357     0.14000
C936        C  0.92586865  0.55342314  0.19911701    -0.20350
C937        C  0.89036971  0.54925675  0.19648729    -0.06870
C938        C  0.87466671  0.54763703  0.16433306     0.13990
C939        C  0.83761387  0.53843991  0.15974341    -0.23700
H940        H  0.88230933  0.55040626  0.11102204     0.15280
H941        H  0.93773042  0.55500718  0.22398697     0.15310
C942        C  0.98425499  0.55569496  0.17386078    -0.23650
H943        H  0.83074163  0.53470590  0.13263465     0.05520
H944        H  0.82091570  0.55860697  0.16945639     0.08750
H945        H  0.83225022  0.51431820  0.17325799     0.08750
H946        H  0.99418213  0.57885349  0.16134701     0.08730
H947        H  0.99560103  0.53297658  0.16199067     0.08730
H948        H  0.99237209  0.55620457  0.20089955     0.05510
C949        C  0.97586410  0.43239848  0.15667320    -0.20300
C950        C  0.97551756  0.41010847  0.12953968    -0.06860
C951        C  0.98680104  0.37653747  0.13473841     0.14000
C952        C  0.00171577  0.36746804  0.16614674    -0.20350
C953        C  0.00843973  0.39192594  0.19151998    -0.06870
C954        C  0.99383900  0.42494265  0.18658873     0.13990
C955        C  0.00043234  0.45479033  0.20932992    -0.23700
H956        H  0.96660657  0.45798464  0.15240705     0.15280
H957        H  0.01032500  0.34165265  0.16974361     0.15310
C958        C  0.98381396  0.35061199  0.10690543    -0.23650
H959        H  0.99217949  0.47916701  0.19777961     0.05520
H960        H  0.02808674  0.45720236  0.21359310     0.08750
H961        H  0.98573166  0.45258503  0.23292729     0.08750
H962        H  0.99928499  0.35824170  0.08488747     0.08730
H963        H  0.95683931  0.34821689  0.09873027     0.08730
H964        H  0.99276476  0.32527945  0.11547262     0.05510
C965        C  0.11274211  0.62779987  0.00399011    -0.20300
C966        C  0.11197360  0.59256568  0.99855696    -0.06860
C967        C  0.14105794  0.57328309  0.00591090     0.14000
C968        C  0.16797124  0.58837092  0.02334602    -0.20350
C969        C  0.16888474  0.62341833  0.03048567    -0.06870
C970        C  0.14158312  0.64378646  0.01846595     0.13990
C971        C  0.14268902  0.68193326  0.01989667    -0.23700
H972        H  0.09030372  0.64260921  0.99795663     0.15280
H973        H  0.18801077  0.57188351  0.03255839     0.15310
C974        C  0.14293418  0.53597716  0.99786717    -0.23650
H975        H  0.12104364  0.69332711  0.00561663     0.05520
H976        H  0.16650146  0.69131507  0.00835350     0.08750
H977        H  0.14100779  0.69099124  0.04627514     0.08750
H978        H  0.13887071  0.53206401  0.97028052     0.08730
H979        H  0.12341829  0.52189148  0.01214795     0.08730
H980        H  0.16808497  0.52508363  0.00472834     0.05510
C981        C  0.85373809  0.40300579  0.06308679    -0.20300
C982        C  0.85590849  0.40903660  0.02798514    -0.06860
C983        C  0.82588898  0.40642471  0.00804442     0.14000
C984        C  0.79468682  0.39863115  0.02396094    -0.20350
C985        C  0.79274914  0.39572063  0.05948243    -0.06870
C986        C  0.82264861  0.39930878  0.07913827     0.13990
C987        C  0.82169403  0.40259944  0.11721399    -0.23700
H988        H  0.87645982  0.40513203  0.07877657     0.15280
H989        H  0.77166359  0.39603066  0.00887588     0.15310
C990        C  0.82643900  0.41328735  0.97059321    -0.23650
H991        H  0.84722130  0.40775803  0.12834510     0.05520
H992        H  0.81214454  0.37918789  0.12895979     0.08750
H993        H  0.80484370  0.42395899  0.12411049     0.08750
H994        H  0.84388437  0.39522333  0.95820703     0.08730
H995        H  0.83526614  0.43959063  0.96585903     0.08730
H996        H  0.80083061  0.41037488  0.95884623     0.05510
C997        C  0.97740359  0.14743025  0.44249332    -0.20300
C998        C  0.01154907  0.13829262  0.44057861    -0.06860
C999        C  0.03374573  0.15828973  0.42104579     0.14000
C1000       C  0.02078734  0.18656654  0.40317517    -0.20350
C1001       C  0.98593642  0.19396792  0.40355127    -0.06870
C1002       C  0.96405435  0.17423851  0.42373104     0.13990
C1003       C  0.92632828  0.18087568  0.42538443    -0.23700
H1004       H  0.96060368  0.13234929  0.45785938     0.15280
H1005       H  0.03760395  0.20248563  0.38850202     0.15310
C1006       C  0.07066617  0.14999395  0.41916458    -0.23650
H1007       H  0.91367210  0.16399401  0.44393267     0.05520
H1008       H  0.91423274  0.17615080  0.40032203     0.08750
H1009       H  0.92150228  0.20740955  0.43301634     0.08750
H1010       H  0.07386985  0.12415263  0.40866647     0.08730
H1011       H  0.08173180  0.15153663  0.44506587     0.08730
H1012       H  0.08446795  0.16814032  0.40272808     0.05510
C1013       C  0.69950776  0.17168179  0.25062627    -0.20300
C1014       C  0.73446902  0.16511486  0.24939382    -0.06860
C1015       C  0.74593460  0.13114290  0.24791636     0.14000
C1016       C  0.72197663  0.10467846  0.24887889    -0.20350
C1017       C  0.68715680  0.11156169  0.25084200    -0.06870
C1018       C  0.67572885  0.14543357  0.25097628     0.13990
C1019       C  0.63840738  0.15405052  0.25110251    -0.23700
H1020       H  0.69072277  0.19770047  0.25137238     0.15280
H1021       H  0.73041754  0.07853966  0.24885296     0.15310
C1022       C  0.78297529  0.12256101  0.24422603    -0.23650
H1023       H  0.63411574  0.18178132  0.24876287     0.05520
H1024       H  0.62670858  0.14564969  0.27507991     0.08750
H1025       H  0.62534761  0.14149085  0.22942946     0.08750
H1026       H  0.79748657  0.12972347  0.26732158     0.08730
H1027       H  0.79348213  0.13602705  0.22195675     0.08730
H1028       H  0.78675335  0.09494447  0.24043468     0.05510
C1029       C  0.72554774  0.28420975  0.18971611    -0.20300
C1030       C  0.75987249  0.27669074  0.19689297    -0.06860
C1031       C  0.78512382  0.29137116  0.17650597     0.14000
C1032       C  0.77567627  0.31528068  0.15204031    -0.20350
C1033       C  0.74143823  0.32353710  0.14479417    -0.06870
C1034       C  0.71597922  0.30584169  0.16283046     0.13990
C1035       C  0.67892627  0.30656013  0.15289423    -0.23700
H1036       H  0.70585822  0.27179582  0.20418439     0.15280
H1037       H  0.79591606  0.32733057  0.13848362     0.15310
C1038       C  0.82198009  0.28076898  0.17857947    -0.23650
H1039       H  0.66926377  0.28017854  0.15054881     0.05520
H1040       H  0.67435519  0.31866174  0.12791374     0.08750
H1041       H  0.66420872  0.31980663  0.17263445     0.08750
H1042       H  0.82394997  0.25270018  0.17797277     0.08730
H1043       H  0.83438956  0.29078636  0.20177156     0.08730
H1044       H  0.83668336  0.29074451  0.15688682     0.05510
C1045       C  0.86565045  0.22551811  0.27790868    -0.20300
C1046       C  0.83381321  0.23316013  0.29142974    -0.06860
C1047       C  0.83145378  0.24383963  0.32519440     0.14000
C1048       C  0.86092725  0.24546777  0.34521172    -0.20350
C1049       C  0.89321114  0.23866245  0.33181870    -0.06870
C1050       C  0.89555903  0.22849658  0.29753883     0.13990
C1051       C  0.92922045  0.22212621  0.28098688    -0.23700
H1052       H  0.86705491  0.21756352  0.25171068     0.15280
H1053       H  0.85872241  0.25273332  0.37153015     0.15310
C1054       C  0.79796308  0.25430462  0.33983880    -0.23650
H1055       H  0.92612511  0.21739012  0.25340162     0.05520
H1056       H  0.94160474  0.19943353  0.29210716     0.08750
H1057       H  0.94601840  0.24454279  0.28422783     0.08750
H1058       H  0.77992499  0.23267350  0.33905054     0.08730
H1059       H  0.78724208  0.27572622  0.32486964     0.08730
H1060       H  0.80074989  0.26269894  0.36655808     0.05510
C1061       C  0.03019138  0.55662926  0.84709872    -0.20300
C1062       C  0.01189486  0.57991196  0.86655076    -0.06860
C1063       C  0.01009171  0.61394672  0.85555437     0.14000
C1064       C  0.02811754  0.62401727  0.82629063    -0.20350
C1065       C  0.04831999  0.60081825  0.80828378    -0.06870
C1066       C  0.04925669  0.56659820  0.81919934     0.13990
C1067       C  0.07265565  0.54073357  0.80373422    -0.23700
H1068       H  0.03177010  0.53049051  0.85552679     0.15280
H1069       H  0.02743565  0.65026681  0.81815555     0.15310
C1070       C  0.99063782  0.63969115  0.87544102    -0.23650
H1071       H  0.07327812  0.51670480  0.81848148     0.05520
H1072       H  0.09900819  0.55077478  0.80313790     0.08750
H1073       H  0.06392835  0.53416466  0.77783820     0.08750
H1074       H  0.00124853  0.64139102  0.90156531     0.08730
H1075       H  0.96353629  0.63202151  0.87661127     0.08730
H1076       H  0.99198433  0.66524005  0.86363167     0.05510
C1077       C  0.18335798  0.02028722  0.62044079    -0.20300
C1078       C  0.19155462  0.98553610  0.62028778    -0.06860
C1079       C  0.17092724  0.96263942  0.60195008     0.14000
C1080       C  0.14199822  0.97461330  0.58554769    -0.20350
C1081       C  0.13205931  0.00861849  0.58764647    -0.06870
C1082       C  0.15335570  0.03208640  0.60436793     0.13990
C1083       C  0.14403604  0.06885997  0.60580834    -0.23700
H1084       H  0.20025909  0.03797200  0.63317369     0.15280
H1085       H  0.12634983  0.95690921  0.57139424     0.15310
C1086       C  0.17957594  0.92545677  0.59893263    -0.23650
H1087       H  0.16322082  0.08382087  0.62025640     0.05520
H1088       H  0.11914124  0.07140312  0.61837759     0.08750
H1089       H  0.14217401  0.07942030  0.57974868     0.08750
H1090       H  0.17935068  0.91328652  0.62426915     0.08730
H1091       H  0.20502785  0.92246937  0.58758516     0.08730
H1092       H  0.16100312  0.91164226  0.58265084     0.05510
C1093       C  0.13387034  0.70470461  0.76399829    -0.20300
C1094       C  0.14593599  0.67129937  0.76515104    -0.06860
C1095       C  0.18125039  0.66572936  0.76882532     0.14000
C1096       C  0.20354508  0.69370271  0.77074800    -0.20350
C1097       C  0.19156548  0.72728815  0.76907867    -0.06870
C1098       C  0.15607273  0.73267582  0.76590180     0.13990
C1099       C  0.14112803  0.76774595  0.76545499    -0.23700
H1100       H  0.10678341  0.70890820  0.76121542     0.15280
H1101       H  0.23056475  0.68935419  0.77390377     0.15310
C1102       C  0.19537530  0.63038032  0.77203614    -0.23650
H1103       H  0.11295591  0.76710621  0.76619868     0.05520
H1104       H  0.14819592  0.78083958  0.74175455     0.08750
H1105       H  0.15036271  0.78230672  0.78776925     0.08750
H1106       H  0.19033578  0.61586055  0.74851488     0.08730
H1107       H  0.18340402  0.61715920  0.79370286     0.08730
H1108       H  0.22327153  0.63064860  0.77651005     0.05510
C1109       C  0.27483912  0.85579991  0.72818309    -0.20300
C1110       C  0.24289336  0.84096429  0.73439254    -0.06860
C1111       C  0.21391386  0.85614713  0.71904916     0.14000
C1112       C  0.21799185  0.88264886  0.69560419    -0.20350
C1113       C  0.24973433  0.89799689  0.68992987    -0.06870
C1114       C  0.27835411  0.88510289  0.70802494     0.13990
C1115       C  0.31255244  0.90242612  0.70861383    -0.23700
H1116       H  0.29735837  0.84522981  0.74017770     0.15280
H1117       H  0.19560669  0.89200936  0.68245237     0.15310
C1118       C  0.17808458  0.84716229  0.72849797    -0.23650
H1119       H  0.32101435  0.90613120  0.73528925     0.05520
H1120       H  0.31208675  0.92796340  0.69693170     0.08750
H1121       H  0.33146334  0.88639339  0.69560752     0.08750
H1122       H  0.17690314  0.83258858  0.75240887     0.08730
H1123       H  0.16565893  0.83288809  0.70755173     0.08730
H1124       H  0.16342632  0.87070898  0.73302131     0.05510
C1125       C  0.31678642  0.77448386  0.83452412    -0.20300
C1126       C  0.28254284  0.78181189  0.84005378    -0.06860
C1127       C  0.27154137  0.78852838  0.87323736     0.14000
C1128       C  0.29502499  0.78686265  0.90037874    -0.20350
C1129       C  0.32922247  0.77861980  0.89497545    -0.06870
C1130       C  0.34032074  0.77288101  0.86146225     0.13990
C1131       C  0.37715584  0.76642711  0.85361999    -0.23700
H1132       H  0.32511102  0.76996100  0.80887298     0.15280
H1133       H  0.28664676  0.79171605  0.92594023     0.15310
C1134       C  0.23522545  0.79802687  0.87981733    -0.23650
H1135       H  0.38155484  0.76576575  0.82591073     0.05520
H1136       H  0.38545605  0.74164127  0.86400919     0.08750
H1137       H  0.39320762  0.78693953  0.86452286     0.08750
H1138       H  0.21807187  0.77706969  0.87189194     0.08730
H1139       H  0.22857005  0.82126369  0.86525562     0.08730
H1140       H  0.23095514  0.80312028  0.90707214     0.05510
C1141       C  0.53863351  0.84179522  0.04064478    -0.20300
C1142       C  0.55831630  0.86863593  0.05301198    -0.06860
C1143       C  0.57439937  0.86527671  0.08490939     0.14000
C1144       C  0.56701455  0.83735359  0.10541073    -0.20350
C1145       C  0.54599386  0.81055960  0.09417650    -0.06870
C1146       C  0.53243418  0.81263769  0.06035375     0.13990
C1147       C  0.51112263  0.78532880  0.04393936    -0.23700
H1148       H  0.52557250  0.84494454  0.01649388     0.15280
H1149       H  0.57716937  0.83731332  0.13099166     0.15310
C1150       C  0.59798816  0.89247875  0.09820529    -0.23650
H1151       H  0.48483512  0.78587870  0.05356354     0.05520
H1152       H  0.50876366  0.78920796  0.01613800     0.08750
H1153       H  0.52321525  0.76034522  0.04767151     0.08750
H1154       H  0.58424012  0.91670718  0.10144744     0.08730
H1155       H  0.61899567  0.89636308  0.08011579     0.08730
H1156       H  0.60934755  0.88548572  0.12314358     0.05510
C1157       C  0.37694077  0.84763533  0.01414534    -0.20300
C1158       C  0.39689740  0.83244033  0.98918948    -0.06860
C1159       C  0.43054800  0.84368827  0.98426896     0.14000
C1160       C  0.44411153  0.86827077  0.00562183    -0.20350
C1161       C  0.42390509  0.88493906  0.02907885    -0.06870
C1162       C  0.38993349  0.87462301  0.03366746     0.13990
C1163       C  0.36791894  0.89163093  0.05942989    -0.23700
H1164       H  0.35132956  0.83851223  0.01818095     0.15280
H1165       H  0.46993531  0.87665245  0.00156563     0.15310
C1166       C  0.45246490  0.83168546  0.95562489    -0.23650
H1167       H  0.34238628  0.87970570  0.06056828     0.05520
H1168       H  0.36451981  0.91879354  0.05286960     0.08750
H1169       H  0.38006524  0.88960195  0.08489265     0.08750
H1170       H  0.43926625  0.81397559  0.93814892     0.08730
H1171       H  0.47550653  0.81916200  0.96612127     0.08730
H1172       H  0.46045614  0.85383731  0.94021644     0.05510
C1173       C  0.63227958  0.00248675  0.18496810    -0.20300
C1174       C  0.61156967  0.01662469  0.20997396    -0.06860
C1175       C  0.57560027  0.01508638  0.20560675     0.14000
C1176       C  0.56189779  0.00027884  0.17638918    -0.20350
C1177       C  0.58262516  0.99012405  0.14994065    -0.06870
C1178       C  0.61825381  0.99008137  0.15453686     0.13990
C1179       C  0.64146193  0.97789925  0.12710365    -0.23700
H1180       H  0.65962707  0.00312994  0.18834679     0.15280
H1181       H  0.53459617  0.00070166  0.17228945     0.15310
C1182       C  0.55103978  0.03273542  0.22877790    -0.23650
H1183       H  0.66853319  0.97892124  0.13527691     0.05520
H1184       H  0.63866637  0.99386676  0.10408685     0.08750
H1185       H  0.63525213  0.95124561  0.12070560     0.08750
H1186       H  0.55941780  0.05921417  0.23322209     0.08730
H1187       H  0.54844758  0.01882149  0.25298336     0.08730
H1188       H  0.52506684  0.03407857  0.21755872     0.05510
C1189       C  0.47137264  0.94074333  0.14830209    -0.20300
C1190       C  0.45452101  0.97215352  0.15108504    -0.06860
C1191       C  0.43495015  0.97859867  0.17989505     0.14000
C1192       C  0.43063422  0.95247920  0.20388127    -0.20350
C1193       C  0.44547922  0.92037069  0.19939512    -0.06870
C1194       C  0.46693064  0.91477759  0.17187688     0.13990
C1195       C  0.48420147  0.88111566  0.16670479    -0.23700
H1196       H  0.48668363  0.93567722  0.12629752     0.15280
H1197       H  0.41533537  0.95691634  0.22604249     0.15310
C1198       C  0.41777986  0.01220781  0.18468042    -0.23650
H1199       H  0.49947654  0.88089030  0.14323709     0.05520
H1200       H  0.46483129  0.86070436  0.16468275     0.08750
H1201       H  0.50153515  0.87558803  0.18838548     0.08750
H1202       H  0.39983903  0.01710249  0.16332408     0.08730
H1203       H  0.43717599  0.03266718  0.18562320     0.08730
H1204       H  0.40330878  0.01287944  0.20862188     0.05510
C1205       C  0.44813382  0.18204930  0.00713037    -0.20300
C1206       C  0.43409796  0.15009889  0.01201851    -0.06860
C1207       C  0.40234911  0.14753960  0.02799279     0.14000
C1208       C  0.38880814  0.17562446  0.04448852    -0.20350
C1209       C  0.40472854  0.20757532  0.04357728    -0.06870
C1210       C  0.43220901  0.21111741  0.01995777     0.13990
C1211       C  0.44375253  0.24398744  0.00435608    -0.23700
H1212       H  0.47160627  0.18439055  0.99321998     0.15280
H1213       H  0.36597239  0.17138200  0.05857327     0.15310
C1214       C  0.38267813  0.11490631  0.02939323    -0.23650
H1215       H  0.44595372  0.24095769  0.97650536     0.05520
H1216       H  0.46907669  0.25135944  0.01466607     0.08750
H1217       H  0.42507287  0.26432407  0.00761445     0.08750
H1218       H  0.37998524  0.10691903  0.05618829     0.08730
H1219       H  0.39489932  0.09449829  0.01479956     0.08730
H1220       H  0.35697551  0.11887918  0.01822261     0.05510
C1221       C  0.61136029  0.19093691  0.95807289    -0.20300
C1222       C  0.58912672  0.20359503  0.93277488    -0.06860
C1223       C  0.55710296  0.18825494  0.92812653     0.14000
C1224       C  0.54817662  0.16077900  0.94844714    -0.20350
C1225       C  0.57094603  0.14623219  0.97225662    -0.06870
C1226       C  0.60261234  0.16227851  0.97793630     0.13990
C1227       C  0.62729027  0.14893267  0.00405171    -0.23700
H1228       H  0.63570440  0.20325437  0.96197760     0.15280
H1229       H  0.52331322  0.14949325  0.94447541     0.15310
C1230       C  0.53269587  0.19965841  0.90055079    -0.23650
H1231       H  0.65092552  0.16432686  0.00503284     0.05520
H1232       H  0.63422816  0.12240837  0.99794749     0.08750
H1233       H  0.61555438  0.14970166  0.02945075     0.08750
H1234       H  0.54534108  0.19853165  0.87560795     0.08730
H1235       H  0.52407854  0.22592450  0.90531258     0.08730
H1236       H  0.50971919  0.18330714  0.89914390     0.05510
C1237       C  0.04614502  0.18961827  0.54673707    -0.20300
C1238       C  0.07790343  0.18916905  0.56433913    -0.06860
C1239       C  0.08248262  0.16247877  0.58883407     0.14000
C1240       C  0.05643913  0.13877664  0.59388002    -0.20350
C1241       C  0.02728560  0.13758894  0.57340722    -0.06870
C1242       C  0.02143810  0.16413185  0.55037229     0.13990
C1243       C  0.98971463  0.16512675  0.52871834    -0.23700
H1244       H  0.03992548  0.20960569  0.52935666     0.15280
H1245       H  0.06045476  0.11820819  0.61180875     0.15310
C1246       C  0.11451493  0.15571652  0.60907118    -0.23650
H1247       H  0.98913019  0.18752043  0.51157572     0.05520
H1248       H  0.96709590  0.16616088  0.54513675     0.08750
H1249       H  0.98822723  0.14213722  0.51287734     0.08750
H1250       H  0.11595434  0.17288335  0.63123507     0.08730
H1251       H  0.13713944  0.15685117  0.59261726     0.08730
H1252       H  0.11463571  0.13012787  0.62059305     0.05510
C1253       C  0.38576812  0.05703733  0.83511345    -0.20300
C1254       C  0.40668454  0.08132360  0.81941033    -0.06860
C1255       C  0.43770101  0.09041664  0.83494824     0.14000
C1256       C  0.44753250  0.07467682  0.86508439    -0.20350
C1257       C  0.42651074  0.05122981  0.88199392    -0.06870
C1258       C  0.39530416  0.04188898  0.86643369     0.13990
C1259       C  0.37180913  0.01690574  0.88295169    -0.23700
H1260       H  0.36186180  0.05023658  0.82304470     0.15280
H1261       H  0.47194487  0.08168199  0.87597603     0.15310
C1262       C  0.46013489  0.11786308  0.82054315    -0.23650
H1263       H  0.34821248  0.01311783  0.86772058     0.05520
H1264       H  0.36457318  0.02627542  0.90833279     0.08750
H1265       H  0.38461418  0.99198148  0.88561761     0.08750
H1266       H  0.44557133  0.14182116  0.81792564     0.08730
H1267       H  0.46955113  0.11016563  0.79548189     0.08730
H1268       H  0.48263469  0.12301784  0.83699390     0.05510
C1269       C  0.18238093  0.44385044  0.94142144    -0.20300
C1270       C  0.17697752  0.44672873  0.90613475    -0.06860
C1271       C  0.14349191  0.44613489  0.89299930     0.14000
C1272       C  0.11655277  0.44199408  0.91525655    -0.20350
C1273       C  0.12159373  0.44213636  0.95057063    -0.06870
C1274       C  0.15491723  0.44228069  0.96388716     0.13990
C1275       C  0.16134056  0.44196595  0.00152432    -0.23700
H1276       H  0.20812866  0.44387041  0.95144897     0.15280
H1277       H  0.09079480  0.44278842  0.90518863     0.15310
C1278       C  0.13553041  0.45345892  0.85615218    -0.23650
H1279       H  0.18892109  0.44274396  0.00771887     0.05520
H1280       H  0.15049548  0.41848678  0.01259274     0.08750
H1281       H  0.14919174  0.46418357  0.01342775     0.08750
H1282       H  0.14436470  0.43268633  0.83973249     0.08730
H1283       H  0.14779667  0.47762601  0.84849507     0.08730
H1284       H  0.10779603  0.45616471  0.85144265     0.05510
C1285       C  0.20183289  0.27145961  0.60577651    -0.20300
C1286       C  0.16667500  0.26823834  0.61000348    -0.06860
C1287       C  0.15294723  0.27072460  0.64285714     0.14000
C1288       C  0.17482971  0.27483205  0.67082179    -0.20350
C1289       C  0.21007849  0.27646117  0.66687103    -0.06870
C1290       C  0.22376132  0.27564052  0.63389680     0.13990
C1291       C  0.26131859  0.27977827  0.62828772    -0.23700
H1292       H  0.21218405  0.26973766  0.58054193     0.15280
H1293       H  0.16443888  0.27605975  0.69606994     0.15310
C1294       C  0.11513659  0.26934608  0.64855393    -0.23650
H1295       H  0.26741723  0.28014954  0.60091039     0.05520
H1296       H  0.27549192  0.25847917  0.64012479     0.08750
H1297       H  0.27018093  0.30405261  0.63953512     0.08750
H1298       H  0.10474778  0.24405070  0.64195753     0.08730
H1299       H  0.10227954  0.28898261  0.63283118     0.08730
H1300       H  0.10886135  0.27410976  0.67544497     0.05510
C1301       C  0.31118282  0.16804160  0.75874715    -0.20300
C1302       C  0.34612452  0.17464056  0.75666716    -0.06860
C1303       C  0.35732552  0.20820413  0.75059944     0.14000
C1304       C  0.33331160  0.23383896  0.74460987    -0.20350
C1305       C  0.29839807  0.22686185  0.74462914    -0.06870
C1306       C  0.28713274  0.19379663  0.75290774     0.13990
C1307       C  0.24989795  0.18574096  0.75621160    -0.23700
H1308       H  0.30269634  0.14240480  0.76392472     0.15280
H1309       H  0.34182418  0.25940063  0.73911099     0.15310
C1310       C  0.39454769  0.21726393  0.75101473    -0.23650
H1311       H  0.24574530  0.15911608  0.76444565     0.05520
H1312       H  0.23657237  0.18924883  0.73156352     0.08750
H1313       H  0.23846899  0.20268319  0.77533557     0.08750
H1314       H  0.40785319  0.20456606  0.73003382     0.08730
H1315       H  0.40622373  0.20940869  0.77553726     0.08730
H1316       H  0.39854841  0.24498499  0.74799032     0.05510
C1317       C  0.24935267  0.40189807  0.78133349    -0.20300
C1318       C  0.24663675  0.39590196  0.81620825    -0.06860
C1319       C  0.24705678  0.36212242  0.82834272     0.14000
C1320       C  0.24772556  0.33526033  0.80520867    -0.20350
C1321       C  0.24931210  0.34096126  0.77012372    -0.06870
C1322       C  0.25112962  0.37490796  0.75810149     0.13990
C1323       C  0.25651674  0.38310164  0.72122708    -0.23700
H1324       H  0.24966135  0.42784859  0.77222881     0.15280
H1325       H  0.24703517  0.30945115  0.81467864     0.15310
C1326       C  0.24807330  0.35418052  0.86576667    -0.23650
H1327       H  0.26145645  0.41055847  0.71731108     0.05520
H1328       H  0.23368737  0.37668375  0.70591242     0.08750
H1329       H  0.27878475  0.36896248  0.71174403     0.08750
H1330       H  0.22422627  0.36204802  0.87800863     0.08730
H1331       H  0.26986441  0.36754417  0.87790310     0.08730
H1332       H  0.25121968  0.32660686  0.87059874     0.05510
C1333       C  0.79617760  0.57241517  0.97131602    -0.20300
C1334       C  0.79497771  0.55500142  0.94033762    -0.06860
C1335       C  0.81680786  0.52731254  0.93510589     0.14000
C1336       C  0.84036835  0.51852437  0.96046461    -0.20350
C1337       C  0.84297698  0.53722406  0.99054294    -0.06870
C1338       C  0.82023430  0.56396385  0.99644529     0.13990
C1339       C  0.82147619  0.58333628  0.02923540    -0.23700
H1340       H  0.77807555  0.59251079  0.97585834     0.15280
H1341       H  0.85865267  0.49864294  0.95566885     0.15310
C1342       C  0.81594865  0.50780458  0.90237988    -0.23650
H1343       H  0.80130297  0.60292764  0.03015411     0.05520
H1344       H  0.84640983  0.59619330  0.03228687     0.08750
H1345       H  0.81779152  0.56555909  0.05075507     0.08750
H1346       H  0.82090518  0.52530463  0.88091646     0.08730
H1347       H  0.79069045  0.49576466  0.89869013     0.08730
H1348       H  0.83545415  0.48750440  0.90213282     0.05510
C1349       C  0.93066910  0.83038669  0.62458267    -0.20300
C1350       C  0.91290006  0.81054281  0.60053379    -0.06860
C1351       C  0.91367398  0.82019587  0.56606496     0.14000
C1352       C  0.93418171  0.84711041  0.55624405    -0.20350
C1353       C  0.95104647  0.86783981  0.57994265    -0.06870
C1354       C  0.94919355  0.85949735  0.61470824     0.13990
C1355       C  0.96546125  0.88170467  0.64125780    -0.23700
H1356       H  0.92974053  0.82329315  0.65108418     0.15280
H1357       H  0.93505059  0.85339802  0.52948597     0.15310
C1358       C  0.89147145  0.80452604  0.53887720    -0.23650
H1359       H  0.96076996  0.87195735  0.66719792     0.05520
H1360       H  0.95488864  0.90773540  0.63941811     0.08750
H1361       H  0.99332252  0.88268916  0.63751060     0.08750
H1362       H  0.87330694  0.78555011  0.54864407     0.08730
H1363       H  0.90766109  0.79275017  0.51938478     0.08730
H1364       H  0.87600006  0.82466445  0.52648543     0.05510
C1365       C  0.73999584  0.69152255  0.84470063    -0.20300
C1366       C  0.71999152  0.68881048  0.81521342    -0.06860
C1367       C  0.70411694  0.65762489  0.80775842     0.14000
C1368       C  0.70977788  0.62948654  0.82908521    -0.20350
C1369       C  0.73029286  0.63163842  0.85857925    -0.06870
C1370       C  0.74494187  0.66370081  0.86679938     0.13990
C1371       C  0.76452364  0.66977789  0.89929318    -0.23700
H1372       H  0.75204248  0.71562495  0.85034236     0.15280
H1373       H  0.69811247  0.60546459  0.82247057     0.15310
C1374       C  0.68119219  0.65407661  0.77715359    -0.23650
H1375       H  0.76780916  0.69729825  0.90427512     0.05520
H1376       H  0.79036948  0.65898083  0.89774703     0.08750
H1377       H  0.75074620  0.65877309  0.92108623     0.08750
H1378       H  0.69564564  0.65952189  0.75381196     0.08730
H1379       H  0.65978949  0.67224298  0.77895774     0.08730
H1380       H  0.67040003  0.62811931  0.77505847     0.05510
C1381       C  0.76202868  0.74887320  0.68252633    -0.20300
C1382       C  0.77106774  0.74973609  0.71706302    -0.06860
C1383       C  0.80588350  0.75251837  0.72625478     0.14000
C1384       C  0.83061936  0.75323192  0.70083095    -0.20350
C1385       C  0.82159360  0.75117341  0.66642402    -0.06870
C1386       C  0.78684851  0.74952015  0.65714159     0.13990
C1387       C  0.77593817  0.74906610  0.62045235    -0.23700
H1388       H  0.73540997  0.74719355  0.67541321     0.15280
H1389       H  0.85726587  0.75503901  0.70782676     0.15310
C1390       C  0.81710621  0.75582212  0.76274850    -0.23650
H1391       H  0.74785212  0.74878313  0.61757574     0.05520
H1392       H  0.78598168  0.72613525  0.60788529     0.08750
H1393       H  0.78574680  0.77201933  0.60745241     0.08750
H1394       H  0.81111127  0.73239710  0.77704188     0.08730
H1395       H  0.80411641  0.77769980  0.77449931     0.08730
H1396       H  0.84492277  0.76007277  0.76509206     0.05510
C1397       C  0.57941587  0.97129646  0.83238604    -0.20300
C1398       C  0.55387982  0.94750264  0.82493998    -0.06860
C1399       C  0.52263442  0.94928772  0.84210779     0.14000
C1400       C  0.51800771  0.97430176  0.86682488    -0.20350
C1401       C  0.54416434  0.99692713  0.87560972    -0.06870
C1402       C  0.57503447  0.99578599  0.85777861     0.13990
C1403       C  0.60336455  0.02033027  0.86572731    -0.23700
H1404       H  0.60292756  0.97051415  0.81844341     0.15280
H1405       H  0.49482531  0.97437787  0.88135813     0.15310
C1406       C  0.49484279  0.92361323  0.83583841    -0.23650
H1407       H  0.62525382  0.01677463  0.84865653     0.05520
H1408       H  0.61261559  0.01671543  0.89213627     0.08750
H1409       H  0.59401830  0.04670047  0.86254400     0.08750
H1410       H  0.50484558  0.89766887  0.84035375     0.08730
H1411       H  0.48514078  0.92559486  0.80943548     0.08730
H1412       H  0.47302745  0.92750832  0.85293070     0.05510
C1413       C  0.60582834  0.81524160  0.76582841    -0.20300
C1414       C  0.61553385  0.84929666  0.77027091    -0.06860
C1415       C  0.65057544  0.85694599  0.77366282     0.14000
C1416       C  0.67467123  0.83050441  0.77356909    -0.20350
C1417       C  0.66495348  0.79635887  0.76990628    -0.06870
C1418       C  0.62996228  0.78878122  0.76552556     0.13990
C1419       C  0.61799570  0.75304606  0.75900002    -0.23700
H1420       H  0.57911417  0.80933738  0.76244472     0.15280
H1421       H  0.70143395  0.83654393  0.77618494     0.15310
C1422       C  0.66285759  0.89309085  0.77588595    -0.23650
H1423       H  0.59020367  0.75198450  0.75397696     0.05520
H1424       H  0.62341670  0.73674518  0.78131252     0.08750
H1425       H  0.63102738  0.74264287  0.73654910     0.08750
H1426       H  0.65358190  0.90510830  0.79933587     0.08730
H1427       H  0.65350503  0.90763926  0.75353722     0.08730
H1428       H  0.69102062  0.89461875  0.77640929     0.05510
C1429       C  0.44159571  0.33678985  0.11257455    -0.20300
C1430       C  0.42068936  0.32393961  0.08667588    -0.06860
C1431       C  0.42230307  0.33810648  0.05386628     0.14000
C1432       C  0.44813661  0.36116831  0.04646715    -0.20350
C1433       C  0.46854467  0.37484956  0.07230034    -0.06870
C1434       C  0.46449097  0.36334870  0.10600287     0.13990
C1435       C  0.48472403  0.37857087  0.13478782    -0.23700
H1436       H  0.44014869  0.32590215  0.13774664     0.15280
H1437       H  0.44994165  0.37120959  0.02101293     0.15310
C1438       C  0.39472672  0.33160189  0.02772871    -0.23650
H1439       H  0.47933388  0.36570423  0.15919917     0.05520
H1440       H  0.47826552  0.40576778  0.13765326     0.08750
H1441       H  0.51225929  0.37611790  0.12971725     0.08750
H1442       H  0.37036521  0.34167753  0.03725211     0.08730
H1443       H  0.39113896  0.30434576  0.02277580     0.08730
H1444       H  0.40016324  0.34437625  0.00327487     0.05510
C1445       C  0.53418582  0.32756541  0.89662467    -0.20300
C1446       C  0.56946870  0.32401283  0.90138219    -0.06860
C1447       C  0.58808746  0.35023841  0.91712570     0.14000
C1448       C  0.57102716  0.37899130  0.92845657    -0.20350
C1449       C  0.53558666  0.38226416  0.92511443    -0.06870
C1450       C  0.51694594  0.35653334  0.90825337     0.13990
C1451       C  0.47893495  0.35853739  0.90424582    -0.23700
H1452       H  0.51999436  0.30706277  0.88489115     0.15280
H1453       H  0.58540527  0.39851575  0.94155833     0.15310
C1454       C  0.62572829  0.34709106  0.92392623    -0.23650
H1455       H  0.46837894  0.33572701  0.89145041     0.05520
H1456       H  0.47201056  0.38101910  0.88867939     0.08750
H1457       H  0.46704326  0.36055323  0.92950237     0.08750
H1458       H  0.63944472  0.34499953  0.89967395     0.08730
H1459       H  0.63088136  0.32423887  0.93965303     0.08730
H1460       H  0.63604552  0.36945810  0.93766581     0.05510
C1461       C  0.62367868  0.45529333  0.12119574    -0.20300
C1462       C  0.61603971  0.46704822  0.08828362    -0.06860
C1463       C  0.64048140  0.46151366  0.06299780     0.14000
C1464       C  0.66871357  0.44125904  0.06926635    -0.20350
C1465       C  0.67669589  0.42861899  0.10153598    -0.06870
C1466       C  0.65439224  0.43738615  0.12845286     0.13990
C1467       C  0.66246495  0.42893228  0.16481510    -0.23700
H1468       H  0.60537659  0.45923451  0.14104079     0.15280
H1469       H  0.68453616  0.43513482  0.04790233     0.15310
C1470       C  0.63749309  0.47634812  0.02827484    -0.23650
H1471       H  0.65131849  0.44812992  0.18191039     0.05520
H1472       H  0.69031300  0.42907333  0.16954001     0.08750
H1473       H  0.65150629  0.40387470  0.17141236     0.08750
H1474       H  0.61623886  0.49438884  0.02664165     0.08730
H1475       H  0.66103818  0.49065459  0.02246931     0.08730
H1476       H  0.63416418  0.45575158  0.00940782     0.05510
C1477       C  0.63600841  0.52623155  0.96479031    -0.20300
C1478       C  0.61938720  0.50082501  0.94625154    -0.06860
C1479       C  0.63171846  0.49150370  0.91423374     0.14000
C1480       C  0.66050006  0.50816186  0.90146695    -0.20350
C1481       C  0.67632576  0.53420282  0.91999358    -0.06870
C1482       C  0.66450593  0.54274071  0.95237270     0.13990
C1483       C  0.68119060  0.57014226  0.97345447    -0.23700
H1484       H  0.62526892  0.53500711  0.98823538     0.15280
H1485       H  0.67033851  0.50130163  0.87692878     0.15310
C1486       C  0.61403993  0.46472033  0.89344314    -0.23650
H1487       H  0.66777016  0.57424120  0.99766219     0.05520
H1488       H  0.68110499  0.59444206  0.95920161     0.08750
H1489       H  0.70775503  0.56299986  0.97981179     0.08750
H1490       H  0.58741465  0.47236099  0.88798217     0.08730
H1491       H  0.61412337  0.44042284  0.90763528     0.08730
H1492       H  0.62689857  0.46057150  0.86894455     0.05510
C1493       C  0.45737829  0.65049607  0.11435961    -0.20300
C1494       C  0.46813239  0.64361906  0.08110708    -0.06860
C1495       C  0.49134728  0.66616794  0.06584223     0.14000
C1496       C  0.50344254  0.69405429  0.08379533    -0.20350
C1497       C  0.49378818  0.70054973  0.11707568    -0.06870
C1498       C  0.47000385  0.67883306  0.13258453     0.13990
C1499       C  0.45873965  0.68503803  0.16828043    -0.23700
H1500       H  0.44081516  0.63251376  0.12680936     0.15280
H1501       H  0.52300150  0.70949186  0.07244695     0.15310
C1502       C  0.50704986  0.66001984  0.03192746    -0.23650
H1503       H  0.43976964  0.66591134  0.17645159     0.05520
H1504       H  0.44699528  0.71052715  0.16998738     0.08750
H1505       H  0.48083388  0.68372240  0.18594579     0.08750
H1506       H  0.53497251  0.65719490  0.03500479     0.08730
H1507       H  0.49729195  0.63693217  0.01977989     0.08730
H1508       H  0.50176589  0.68192014  0.01497665     0.05510
C1509       C  0.39846222  0.68607586  0.97403043    -0.20300
C1510       C  0.41592688  0.71314211  0.96028676    -0.06860
C1511       C  0.45018618  0.70931233  0.95082309     0.14000
C1512       C  0.46546074  0.67707876  0.95312046    -0.20350
C1513       C  0.44718594  0.64904429  0.96521119    -0.06870
C1514       C  0.41334873  0.65436530  0.97734311     0.13990
C1515       C  0.39070951  0.62834435  0.99400773    -0.23700
H1516       H  0.37246403  0.68976246  0.98210285     0.15280
H1517       H  0.49120859  0.67357558  0.94447954     0.15310
C1518       C  0.47014870  0.73889956  0.93750622    -0.23650
H1519       H  0.36780350  0.62391925  0.97791369     0.05520
H1520       H  0.40243819  0.60385728  0.99915954     0.08750
H1521       H  0.38243023  0.63803276  0.01896938     0.08750
H1522       H  0.47251795  0.75846537  0.95748269     0.08730
H1523       H  0.45705590  0.74984954  0.91494607     0.08730
H1524       H  0.49615518  0.73132882  0.93013237     0.05510
C1525       C  0.32231870  0.55031860  0.08638118    -0.20300
C1526       C  0.33304632  0.54292078  0.05357184    -0.06860
C1527       C  0.31586977  0.55863693  0.02612777     0.14000
C1528       C  0.29532481  0.58658671  0.03161345    -0.20350
C1529       C  0.28482712  0.59512922  0.06422660    -0.06870
C1530       C  0.29657814  0.57463687  0.09182596     0.13990
C1531       C  0.28133207  0.57680066  0.12649737    -0.23700
H1532       H  0.33468868  0.53794844  0.10772229     0.15280
H1533       H  0.28621483  0.60072270  0.00975308     0.15310
C1534       C  0.31920808  0.54644988  0.99051679    -0.23650
H1535       H  0.29090791  0.55626571  0.14336057     0.05520
H1536       H  0.25333613  0.57392277  0.12441022     0.08750
H1537       H  0.28793955  0.60111998  0.13880733     0.08750
H1538       H  0.33346427  0.52233013  0.99007167     0.08730
H1539       H  0.33175571  0.56616990  0.97491354     0.08730
H1540       H  0.29363224  0.54120329  0.97953993     0.05510
C1541       C  0.30882888  0.46710545  0.91250232    -0.20300
C1542       C  0.29280980  0.48799681  0.88875842    -0.06860
C1543       C  0.30431647  0.52171123  0.88438787     0.14000
C1544       C  0.33372933  0.53272464  0.90225243    -0.20350
C1545       C  0.35033570  0.51096467  0.92535481    -0.06870
C1546       C  0.33665464  0.47825424  0.93135882     0.13990
C1547       C  0.35045015  0.45406230  0.95776771    -0.23700
H1548       H  0.29905178  0.44171572  0.91680914     0.15280
H1549       H  0.34408715  0.55776876  0.89768157     0.15310
C1550       C  0.28579385  0.54558723  0.86091428    -0.23650
H1551       H  0.33020264  0.44805505  0.97615229     0.05520
H1552       H  0.37219925  0.46435693  0.97238592     0.08750
H1553       H  0.35825928  0.43013128  0.94543659     0.08750
H1554       H  0.25924502  0.54872865  0.86948632     0.08730
H1555       H  0.28553233  0.53518615  0.83483037     0.08730
H1556       H  0.29803402  0.57097924  0.86039550     0.05510
C1557       C  0.06720003  0.40181931  0.33619208    -0.20300
C1558       C  0.06188098  0.41878982  0.30554863    -0.06860
C1559       C  0.06136002  0.45481617  0.30545216     0.14000
C1560       C  0.06247660  0.47255015  0.33633134    -0.20350
C1561       C  0.06581190  0.45517401  0.36705685    -0.06870
C1562       C  0.07034131  0.41949122  0.36651005     0.13990
C1563       C  0.07680971  0.39899030  0.39800069    -0.23700
H1564       H  0.06882867  0.37435918  0.33656152     0.15280
H1565       H  0.05838574  0.49972036  0.33651913     0.15310
C1566       C  0.05877656  0.47510293  0.27341474    -0.23650
H1567       H  0.05465352  0.38234572  0.40306670     0.05520
H1568       H  0.09952179  0.38286095  0.39437645     0.08750
H1569       H  0.08180180  0.41552193  0.42010603     0.08750
H1570       H  0.03160322  0.47919329  0.26719785     0.08730
H1571       H  0.07216435  0.46227004  0.25251145     0.08730
H1572       H  0.07087104  0.50036343  0.27668677     0.05510
C1573       C  0.91668490  0.50892661  0.31579554    -0.20300
C1574       C  0.88110157  0.51290186  0.31564579    -0.06860
C1575       C  0.86246983  0.49879471  0.34277448     0.14000
C1576       C  0.88019605  0.48529803  0.37091659    -0.20350
C1577       C  0.91585500  0.48412454  0.37190917    -0.06870
C1578       C  0.93410433  0.49403619  0.34309557     0.13990
C1579       C  0.97228122  0.49134521  0.34201002    -0.23700
H1580       H  0.93140728  0.51909873  0.29511870     0.15280
H1581       H  0.86627168  0.47740932  0.39310957     0.15310
C1582       C  0.82422184  0.49729123  0.34228809    -0.23650
H1583       H  0.98243009  0.49988273  0.31728704     0.05520
H1584       H  0.97999991  0.46454017  0.34587226     0.08750
H1585       H  0.98404526  0.50730043  0.36203604     0.08750
H1586       H  0.81506530  0.48572185  0.31825227     0.08730
H1587       H  0.81321741  0.52285300  0.34510392     0.08730
H1588       H  0.81450743  0.48162985  0.36350467     0.05510
C1589       C  0.08496378  0.54478587  0.69424154    -0.20300
C1590       C  0.09425731  0.57938902  0.69259531    -0.06860
C1591       C  0.10159001  0.59348281  0.66036413     0.14000
C1592       C  0.09993307  0.57278493  0.63157607    -0.20350
C1593       C  0.08671072  0.53969783  0.63287736    -0.06870
C1594       C  0.07976920  0.52527103  0.66476387     0.13990
C1595       C  0.06443943  0.49037154  0.66758051    -0.23700
H1596       H  0.07989832  0.53337702  0.71861809     0.15280
H1597       H  0.10443621  0.58420606  0.60699168     0.15310
C1598       C  0.10705887  0.63088996  0.65415999    -0.23650
H1599       H  0.06009520  0.48307668  0.69436889     0.05520
H1600       H  0.08175896  0.47147463  0.65629114     0.08750
H1601       H  0.03957088  0.48959904  0.65400594     0.08750
H1602       H  0.13405795  0.63564156  0.64791901     0.08730
H1603       H  0.09955076  0.64695685  0.67568655     0.08730
H1604       H  0.09093157  0.63937575  0.63246463     0.05510
C1605       C  0.96027630  0.51413183  0.67319777    -0.20300
C1606       C  0.94537317  0.50840387  0.64150590    -0.06860
C1607       C  0.91508161  0.48925538  0.63985669     0.14000
C1608       C  0.90548628  0.46949928  0.66754926    -0.20350
C1609       C  0.92251177  0.47164502  0.69897533    -0.06870
C1610       C  0.94691636  0.49870542  0.70230958     0.13990
C1611       C  0.95523946  0.51616543  0.73513283    -0.23700
H1612       H  0.98159092  0.53150923  0.67544280     0.15280
H1613       H  0.88403757  0.45295896  0.66375922     0.15310
C1614       C  0.89155666  0.48962574  0.60964264    -0.23650
H1615       H  0.95379029  0.54410435  0.73173198     0.05520
H1616       H  0.98132891  0.50969619  0.74394392     0.08750
H1617       H  0.93601945  0.50999742  0.75419030     0.08750
H1618       H  0.88939244  0.46359928  0.59943732     0.08730
H1619       H  0.89963566  0.50748576  0.58961947     0.08730
H1620       H  0.86597799  0.49787787  0.61772618     0.05510
C1621       C  0.05022502  0.33790434  0.49349277    -0.20300
C1622       C  0.07269833  0.36302139  0.48270589    -0.06860
C1623       C  0.10793322  0.35608120  0.48228435     0.14000
C1624       C  0.11965230  0.32436491  0.49368599    -0.20350
C1625       C  0.09750825  0.30080423  0.50856286    -0.06870
C1626       C  0.06213880  0.30789462  0.50836555     0.13990
C1627       C  0.03693979  0.28648962  0.52730582    -0.23700
H1628       H  0.02336380  0.34381192  0.49467001     0.15280
H1629       H  0.14668039  0.31922937  0.49404830     0.15310
C1630       C  0.13353560  0.38258581  0.47208868    -0.23650
H1631       H  0.01179452  0.29899154  0.52903432     0.05520
H1632       H  0.04602607  0.28174557  0.55362809     0.08750
H1633       H  0.03288677  0.26245681  0.51368136     0.08750
H1634       H  0.13191518  0.40506153  0.48876227     0.08730
H1635       H  0.12914350  0.39046652  0.44555007     0.08730
H1636       H  0.15991692  0.37281957  0.47401363     0.05510
C1637       C  0.92650324  0.33617893  0.41473411    -0.20300
C1638       C  0.94227813  0.30625658  0.42625901    -0.06860
C1639       C  0.94861920  0.30288190  0.46189446     0.14000
C1640       C  0.94395535  0.33113744  0.48315178    -0.20350
C1641       C  0.93042266  0.36140056  0.47041091    -0.06870
C1642       C  0.91786721  0.36208862  0.43679059     0.13990
C1643       C  0.89895136  0.39227038  0.42253994    -0.23700
H1644       H  0.92108279  0.34010798  0.38807995     0.15280
H1645       H  0.95334403  0.33040184  0.50907102     0.15310
C1646       C  0.95967190  0.27018860  0.47848102    -0.23650
H1647       H  0.87431195  0.38374070  0.41152998     0.05520
H1648       H  0.91408666  0.40449548  0.40233449     0.08750
H1649       H  0.89346747  0.41138522  0.44229835     0.08750
H1650       H  0.98703622  0.26577799  0.47467163     0.08730
H1651       H  0.94436898  0.24870327  0.46867002     0.08730
H1652       H  0.95592213  0.27094719  0.50629494     0.05510
C1653       C  0.90805219  0.65470503  0.53231942    -0.20300
C1654       C  0.91815103  0.62742920  0.55284004    -0.06860
C1655       C  0.91226308  0.62911801  0.58825712     0.14000
C1656       C  0.89919534  0.65887662  0.60231857    -0.20350
C1657       C  0.89190111  0.68726803  0.58224198    -0.06870
C1658       C  0.89506403  0.68463852  0.54654608     0.13990
C1659       C  0.88480798  0.71310413  0.52318906    -0.23700
H1660       H  0.91199877  0.65330363  0.50524528     0.15280
H1661       H  0.89616798  0.66054980  0.62951219     0.15310
C1662       C  0.91995544  0.59985848  0.61177116    -0.23650
H1663       H  0.88523858  0.70521614  0.49622301     0.05520
H1664       H  0.90284223  0.73439085  0.52599296     0.08750
H1665       H  0.85866293  0.72157494  0.52897089     0.08750
H1666       H  0.94776405  0.59701079  0.61492015     0.08730
H1667       H  0.90852712  0.57615783  0.60162983     0.08730
H1668       H  0.90953255  0.60403112  0.63742342     0.05510
C1669       C  0.04674259  0.67893767  0.44423541    -0.20300
C1670       C  0.07968527  0.69246358  0.44628496    -0.06860
C1671       C  0.10216054  0.68068778  0.47185354     0.14000
C1672       C  0.09196043  0.65379643  0.49298620    -0.20350
C1673       C  0.05920428  0.63975639  0.49026174    -0.06870
C1674       C  0.03609352  0.65317031  0.46610169     0.13990
C1675       C  0.00060517  0.63927930  0.46208947    -0.23700
H1676       H  0.02911779  0.68886989  0.42537113     0.15280
H1677       H  0.10987127  0.64303358  0.51108090     0.15310
C1678       C  0.13643930  0.69686381  0.47730740    -0.23650
H1679       H  0.98578713  0.65314249  0.44235613     0.05520
H1680       H  0.00169273  0.61236477  0.45442997     0.08750
H1681       H  0.98690804  0.64147982  0.48636838     0.08750
H1682       H  0.13328642  0.72428795  0.48270018     0.08730
H1683       H  0.15206765  0.69381464  0.45436246     0.08730
H1684       H  0.15036185  0.68519507  0.49901122     0.05510
C1685       C  0.41067833  0.10214499  0.66678410    -0.20300
C1686       C  0.43008786  0.10303580  0.69673369    -0.06860
C1687       C  0.46566864  0.09742784  0.69490425     0.14000
C1688       C  0.48000945  0.08782370  0.66379648    -0.20350
C1689       C  0.45974617  0.08435637  0.63458391    -0.06870
C1690       C  0.42497352  0.09344320  0.63587785     0.13990
C1691       C  0.40224780  0.09307036  0.60483637    -0.23700
H1692       H  0.38364045  0.10709856  0.66770394     0.15280
H1693       H  0.50666322  0.08118861  0.66274280     0.15310
C1694       C  0.48882821  0.10204488  0.72515404    -0.23650
H1695       H  0.37819781  0.10700206  0.60906293     0.05520
H1696       H  0.39535241  0.06667596  0.59805856     0.08750
H1697       H  0.41545723  0.10541289  0.58345922     0.08750
H1698       H  0.48422987  0.08200036  0.74421045     0.08730
H1699       H  0.48473352  0.12744569  0.73639857     0.08730
H1700       H  0.51596247  0.10028935  0.71805832     0.05510
C1701       C  0.52639931  0.95341180  0.65699988    -0.20300
C1702       C  0.49267784  0.94418761  0.64989362    -0.06860
C1703       C  0.47518384  0.92327000  0.67277733     0.14000
C1704       C  0.49256099  0.91088905  0.70174579    -0.20350
C1705       C  0.52724283  0.91816424  0.70720472    -0.06870
C1706       C  0.54412041  0.94014851  0.68483024     0.13990
C1707       C  0.58093079  0.94960317  0.69022163    -0.23700
H1708       H  0.53953823  0.96994432  0.63965337     0.15280
H1709       H  0.47928116  0.89527119  0.71992696     0.15310
C1710       C  0.43856508  0.91415930  0.66646422    -0.23650
H1711       H  0.59011362  0.96709867  0.67021511     0.05520
H1712       H  0.59688194  0.92644785  0.68971002     0.08750
H1713       H  0.58432042  0.96236343  0.71505270     0.08750
H1714       H  0.43593043  0.90023419  0.64218911     0.08730
H1715       H  0.42308696  0.93764261  0.66505987     0.08730
H1716       H  0.42844912  0.89789997  0.68702655     0.05510
C1717       C  0.34247539  0.06088456  0.50154364    -0.20300
C1718       C  0.36895992  0.08260966  0.51088232    -0.06860
C1719       C  0.36614704  0.11771430  0.50310252     0.14000
C1720       C  0.33765275  0.12963015  0.48472313    -0.20350
C1721       C  0.31241600  0.10728140  0.47300875    -0.06870
C1722       C  0.31502752  0.07224928  0.48171866     0.13990
C1723       C  0.29120818  0.04562585  0.46750761    -0.23700
H1724       H  0.34514318  0.03393775  0.50651720     0.15280
H1725       H  0.33544111  0.15638427  0.47877378     0.15310
C1726       C  0.39328176  0.14270524  0.51370107    -0.23650
H1727       H  0.30219063  0.01978393  0.46973459     0.05520
H1728       H  0.28619543  0.05035197  0.44017491     0.08750
H1729       H  0.26717967  0.04512676  0.48172974     0.08750
H1730       H  0.41785187  0.13668408  0.50181227     0.08730
H1731       H  0.39637653  0.14228838  0.54160900     0.08730
H1732       H  0.38652687  0.16900698  0.50612620     0.05510
C1733       C  0.36161474  0.97590804  0.57660509    -0.20300
C1734       C  0.36106774  0.95670258  0.54653888    -0.06860
C1735       C  0.33119894  0.93919568  0.53709885     0.14000
C1736       C  0.30394395  0.93848877  0.55983462    -0.20350
C1737       C  0.30639419  0.95491824  0.59132755    -0.06870
C1738       C  0.33492970  0.97482807  0.59927607     0.13990
C1739       C  0.33760833  0.99428103  0.63205088    -0.23700
H1740       H  0.38397202  0.99062428  0.58337450     0.15280
H1741       H  0.28106693  0.92442937  0.55351305     0.15310
C1742       C  0.32842581  0.92054637  0.50403142    -0.23650
H1743       H  0.36191900  0.00850840  0.63421039     0.05520
H1744       H  0.33619710  0.97647651  0.65381879     0.08750
H1745       H  0.31649835  0.01279408  0.63353208     0.08750
H1746       H  0.34828158  0.90067618  0.50287158     0.08730
H1747       H  0.33170441  0.93865547  0.48272859     0.08730
H1748       H  0.30325614  0.90811709  0.50088762     0.05510
C1749       C  0.54917990  0.07800917  0.35246033    -0.20300
C1750       C  0.55823436  0.05773179  0.38020248    -0.06860
C1751       C  0.59076864  0.04196163  0.38103776     0.14000
C1752       C  0.61141166  0.04341686  0.35293556    -0.20350
C1753       C  0.60139625  0.06160545  0.32452879    -0.06870
C1754       C  0.57076204  0.08042512  0.32448559     0.13990
C1755       C  0.55969317  0.10222713  0.29501085    -0.23700
H1756       H  0.52452788  0.09015970  0.35163628     0.15280
H1757       H  0.63529542  0.02971970  0.35295855     0.15310
C1758       C  0.60421257  0.02228529  0.41086541    -0.23650
H1759       H  0.55637584  0.12873219  0.30372051     0.05520
H1760       H  0.53510714  0.09275818  0.28470282     0.08750
H1761       H  0.57830856  0.10254092  0.27422319     0.08750
H1762       H  0.63021087  0.03106401  0.41769218     0.08730
H1763       H  0.58835408  0.02656167  0.43304239     0.08730
H1764       H  0.60486145  0.99485978  0.40467964     0.05510
C1765       C  0.49862202  0.87960525  0.37104859    -0.20300
C1766       C  0.50845050  0.91390360  0.37260232    -0.06860
C1767       C  0.50888955  0.93310614  0.34255447     0.14000
C1768       C  0.49463036  0.91931627  0.31303998    -0.20350
C1769       C  0.48140690  0.88592118  0.31192056    -0.06870
C1770       C  0.48647006  0.86497642  0.34075864     0.13990
C1771       C  0.47965565  0.82739032  0.34061191    -0.23700
H1772       H  0.49912382  0.86447483  0.39402490     0.15280
H1773       H  0.49135032  0.93625121  0.29168078     0.15310
C1774       C  0.52098502  0.96939695  0.34212800    -0.23650
H1775       H  0.50258905  0.81377770  0.34997356     0.05520
H1776       H  0.47404290  0.81755442  0.31488248     0.08750
H1777       H  0.45816111  0.82144303  0.35756677     0.08750
H1778       H  0.54765512  0.97077181  0.35150346     0.08730
H1779       H  0.50444063  0.98503535  0.35831640     0.08730
H1780       H  0.52022864  0.98044887  0.31621897     0.05510
C1781       C  0.67506797  0.03651428  0.56745275    -0.20300
C1782       C  0.68833770  0.06920837  0.56242162    -0.06860
C1783       C  0.67937272  0.08700846  0.53254414     0.14000
C1784       C  0.65475001  0.07326512  0.51040429    -0.20350
C1785       C  0.64029937  0.04119496  0.51636001    -0.06870
C1786       C  0.65219427  0.02196086  0.54419618     0.13990
C1787       C  0.64022227  0.98625423  0.54969508    -0.23700
H1788       H  0.68396013  0.02170734  0.58897155     0.15280
H1789       H  0.64547332  0.08827593  0.48919618     0.15310
C1790       C  0.69629468  0.12008121  0.52368052    -0.23650
H1791       H  0.65046827  0.97520777  0.57361801     0.05520
H1792       H  0.64877474  0.97036738  0.52836950     0.08750
H1793       H  0.61223234  0.98573483  0.55059212     0.08750
H1794       H  0.72410462  0.11622636  0.52143311     0.08730
H1795       H  0.69145846  0.13905093  0.54372387     0.08730
H1796       H  0.68662954  0.13041382  0.49921032     0.05510
C1797       C  0.68462263  0.88564718  0.48617394    -0.20300
C1798       C  0.69558585  0.89654129  0.45406647    -0.06860
C1799       C  0.67518666  0.91871528  0.43493722     0.14000
C1800       C  0.64427420  0.92903617  0.44772698    -0.20350
C1801       C  0.63244652  0.91887087  0.47998604    -0.06870
C1802       C  0.65329523  0.89684883  0.49958131     0.13990
C1803       C  0.64283179  0.88504062  0.53415384    -0.23700
H1804       H  0.70040204  0.86817677  0.50054691     0.15280
H1805       H  0.62927392  0.94546668  0.43152834     0.15310
C1806       C  0.68577565  0.93143780  0.40043345    -0.23650
H1807       H  0.66215679  0.86804240  0.54584591     0.05520
H1808       H  0.61854637  0.87080003  0.53224034     0.08750
H1809       H  0.63965868  0.90718007  0.55109141     0.08750
H1810       H  0.68846662  0.90988195  0.38269581     0.08730
H1811       H  0.71035218  0.94512798  0.40262734     0.08730
H1812       H  0.66692553  0.94921685  0.38913038     0.05510
loop_ 
_geom_bond_atom_site_label_1 
_geom_bond_atom_site_label_2 
_geom_bond_distance 
_geom_bond_site_symmetry_2 
_ccdc_geom_bond_type 
O1          Zr13   2.371       .  S
O1            C3   1.266       .  A
O2          Zr39   2.506   1_545  S
O2            C3   1.292       .  A
C3         C1785   1.472       .  S
O4          Zr16   2.416       .  S
O4            C6   1.282       .  A
O5          Zr40   2.464   1_565  S
O5            C6   1.293       .  A
C6         C1702   1.469       .  S
O7          Zr16   2.516       .  S
O7            C9   1.296       .  A
O8          Zr39   2.321       .  S
O8            C9   1.266       .  A
C9         C1801   1.507       .  S
O10         Zr13   2.505       .  S
O10          C12   1.299       .  A
O11         Zr40   2.344       .  S
O11          C12   1.274       .  A
C12        C1689   1.479       .  S
Zr13         O14   2.434       .  S
Zr13         O15   2.433       .  S
Zr13         O19   2.402   1_545  S
Zr13         O20   2.330   1_545  S
Zr13         O43   2.304       .  S
Zr13         O45   2.402       .  S
O14          H57   0.989       .  S
O15          H56   0.988       .  S
O15          H60   0.989       .  S
Zr16         O17   2.432       .  S
Zr16         O18   2.434       .  S
Zr16         O20   2.406       .  S
Zr16         O19   2.353       .  S
Zr16         O44   2.360       .  S
Zr16         O46   2.370       .  S
O17          H58   0.987       .  S
O17          H61   0.989       .  S
O18          H51   0.987       .  S
O19         Zr39   2.314       .  S
O20         Zr40   2.405   1_565  S
O20          H47   0.963       .  S
O21         Zr33   2.407       .  S
O21          C23   1.282       .  A
O22         Zr40   2.479       .  S
O22          C23   1.301       .  A
C23        C1718   1.476       .  S
O24         Zr36   2.402       .  S
O24          C26   1.280       .  A
O25         Zr39   2.461       .  S
O25          C26   1.292       .  A
C26        C1766   1.477       .  S
O27         Zr36   2.473       .  S
O27          C29   1.282       .  A
O28         Zr40   2.371   1_565  S
O28          C29   1.261       .  A
C29        C1734   1.476       .  S
O30         Zr33   2.488       .  S
O30          C32   1.288       .  A
O31         Zr39   2.357   1_545  S
O31          C32   1.261       .  A
C32        C1750   1.473       .  S
Zr33         O34   2.434       .  S
Zr33         O35   2.434       .  S
Zr33         O41   2.401       .  S
Zr33         O42   2.380   1_545  S
Zr33         O45   2.376       .  S
Zr33         O43   2.400       .  S
O34          H54   0.990       .  S
O34          H59   0.989       .  S
O35          H55   0.988       .  S
Zr36         O37   2.434       .  S
Zr36         O38   2.434       .  S
Zr36         O42   2.406       .  S
Zr36         O41   2.371   1_565  S
Zr36         O46   2.381       .  S
Zr36         O44   2.417       .  S
O37          H53   0.989       .  S
O38          H52   0.988       .  S
O38          H62   0.988       .  S
Zr39         O42   2.352       .  S
Zr39         O44   2.360       .  S
Zr39         O45   2.389   1_565  S
Zr40         O41   2.400       .  S
Zr40         O43   2.394       .  S
Zr40         O46   2.392   1_545  S
O41          H49   0.964       .  S
O44          H48   0.964       .  S
O45          H50   0.964       .  S
O63         Zr75   2.400       .  S
O63          C65   1.273       .  A
O64        Zr101   2.481       .  S
O64          C65   1.294       .  A
C65        C1673   1.472       .  S
O66         Zr78   2.407       .  S
O66          C68   1.282       .  A
O67        Zr102   2.458       .  S
O67          C68   1.292       .  A
C68        C1577   1.471       .  S
O69         Zr78   2.497       .  S
O69          C71   1.297       .  A
O70        Zr101   2.375   1_655  S
O70          C71   1.276       .  A
C71        C1654   1.487       .  S
O72         Zr75   2.510       .  S
O72          C74   1.298       .  A
O73        Zr102   2.323   1_455  S
O73          C74   1.267       .  A
C74        C1561   1.473       .  S
Zr75         O76   2.435       .  S
Zr75         O77   2.436       .  S
Zr75         O81   2.414       .  S
Zr75         O82   2.350   1_455  S
Zr75        O105   2.341       .  S
Zr75        O107   2.403       .  S
O76         H119   0.987       .  S
O77         H118   0.989       .  S
O77         H122   0.990       .  S
Zr78         O79   2.434       .  S
Zr78         O80   2.435       .  S
Zr78         O82   2.403       .  S
Zr78         O81   2.361   1_655  S
Zr78        O106   2.344       .  S
Zr78        O108   2.394       .  S
O79         H120   0.988       .  S
O79         H123   0.989       .  S
O80         H113   0.987       .  S
O81        Zr101   2.378       .  S
O82        Zr102   2.368       .  S
O82         H109   0.963       .  S
O83         Zr95   2.413       .  S
O83          C85   1.282       .  A
O84        Zr102   2.451   1_455  S
O84          C85   1.292       .  A
C85        C1622   1.470       .  S
O86         Zr98   2.361       .  S
O86          C88   1.254       .  A
O87        Zr101   2.484   1_655  S
O87          C88   1.268       .  A
C88        C1606   1.486       .  S
O89         Zr98   2.489       .  S
O89          C91   1.292       .  A
O90        Zr102   2.323       .  S
O90          C91   1.268       .  A
C91        C1641   1.467       .  S
O92         Zr95   2.499       .  S
O92          C94   1.297       .  A
O93        Zr101   2.363       .  S
O93          C94   1.276       .  A
C94        C1593   1.482       .  S
Zr95         O96   2.435       .  S
Zr95         O97   2.435       .  S
Zr95        O103   2.408       .  S
Zr95        O104   2.349       .  S
Zr95        O107   2.356       .  S
Zr95        O105   2.389       .  S
O96         H116   0.989       .  S
O96         H121   0.989       .  S
O97         H117   0.988       .  S
Zr98         O99   2.432       .  S
Zr98        O100   2.435       .  S
Zr98        O104   2.412   1_655  S
Zr98        O103   2.346   1_655  S
Zr98        O108   2.348       .  S
Zr98        O106   2.410       .  S
O99         H115   0.989       .  S
O100        H114   0.989       .  S
O100        H124   0.989       .  S
Zr101       O104   2.411       .  S
Zr101       O106   2.424   1_455  S
Zr101       O107   2.397       .  S
Zr102       O103   2.374   1_655  S
Zr102       O105   2.369   1_655  S
Zr102       O108   2.361       .  S
O103        H111   0.965       .  S
O106        H110   0.965       .  S
O107        H112   0.964       .  S
O125       Zr137   2.384       .  S
O125        C127   1.276       .  A
O126       Zr163   2.484   1_556  S
O126        C127   1.298       .  A
C127       C1545   1.475       .  S
O128       Zr140   2.416       .  S
O128        C130   1.272       .  A
O129       Zr164   2.454       .  S
O129        C130   1.287       .  A
C130       C1433   1.469       .  S
O131       Zr140   2.524       .  S
O131        C133   1.300       .  A
O132       Zr163   2.341       .  S
O132        C133   1.270       .  A
C133       C1526   1.481       .  S
O134       Zr137   2.475       .  S
O134        C136   1.291       .  A
O135       Zr164   2.373   1_556  S
O135        C136   1.277       .  A
C136       C1449   1.485       .  S
Zr137       O138   2.431       .  S
Zr137       O139   2.438       .  S
Zr137       O143   2.400       .  S
Zr137       O144   2.348   1_556  S
Zr137       O167   2.326       .  S
Zr137       O169   2.383       .  S
O138        H181   0.988       .  S
O139        H180   0.990       .  S
O139        H184   0.989       .  S
Zr140       O141   2.434       .  S
Zr140       O142   2.434       .  S
Zr140       O144   2.424       .  S
Zr140       O143   2.344   1_554  S
Zr140       O168   2.342       .  S
Zr140       O170   2.406       .  S
O141        H182   0.986       .  S
O141        H185   0.988       .  S
O142        H175   0.987       .  S
O143       Zr163   2.355   1_556  S
O144       Zr164   2.396       .  S
O144        H171   0.963   1_554  S
O145       Zr157   2.400       .  S
O145        C147   1.275       .  A
O146       Zr164   2.464   1_556  S
O146        C147   1.292       .  A
C147       C1478   1.462       .  S
O148       Zr160   2.404       .  S
O148        C150   1.281       .  A
O149       Zr163   2.503       .  S
O149        C150   1.300       .  A
C150       C1494   1.479       .  S
O151       Zr160   2.534       .  S
O151        C153   1.303       .  A
O152       Zr164   2.379       .  S
O152        C153   1.277       .  A
C153       C1462   1.501       .  S
O154       Zr157   2.524       .  S
O154        C156   1.296       .  A
O155       Zr163   2.351   1_556  S
O155        C156   1.251       .  A
C156       C1513   1.488       .  S
Zr157       O158   2.438       .  S
Zr157       O159   2.434       .  S
Zr157       O165   2.413   1_556  S
Zr157       O166   2.336   1_556  S
Zr157       O169   2.345       .  S
Zr157       O167   2.404       .  S
O158        H178   0.988   1_556  S
O158        H183   0.987       .  S
O159        H179   0.988       .  S
Zr160       O161   2.434       .  S
Zr160       O162   2.435       .  S
Zr160       O166   2.404       .  S
Zr160       O165   2.354       .  S
Zr160       O170   2.333       .  S
Zr160       O168   2.416       .  S
O161        H177   0.989       .  S
O162        H176   0.990       .  S
O162        H186   0.988       .  S
Zr163       O166   2.376       .  S
Zr163       O168   2.385       .  S
Zr163       O169   2.385   1_554  S
Zr164       O165   2.398       .  S
Zr164       O167   2.371   1_554  S
Zr164       O170   2.385       .  S
O165        H173   0.963       .  S
O168        H172   0.963       .  S
O169        H174   0.965       .  S
C187       C1398   1.483       .  S
C187        C188   1.394       .  A
C187        C192   1.411       .  A
C188        C189   1.392       .  A
C188        H193   1.085       .  S
C189       C1705   1.476       .  S
C189        C190   1.409       .  A
C190        C191   1.412       .  A
C190        H194   1.083       .  S
C191       C1414   1.502       .  S
C191        C192   1.415       .  A
C192        H195   1.083       .  S
C196       C1417   1.503       .  S
C196        C197   1.412       .  A
C196        C201   1.414       .  A
C197        C198   1.409       .  A
C197        H202   1.084       .  S
C198       C1382   1.494       .  S
C198        C199   1.404       .  A
C199        C200   1.402       .  A
C199        H203   1.084       .  S
C200       C1366   1.490       .  S
C200        C201   1.410       .  A
C201        H204   1.083       .  S
C205       C1350   1.486       .  S
C205        C206   1.404       .  A
C205        C210   1.406       .  A
C206        C207   1.401       .  A
C206        H211   1.083       .  S
C207       C1657   1.492       .  S
C207        C208   1.409       .  A
C208        C209   1.409       .  A
C208        H212   1.084       .  S
C209       C1385   1.489       .  S
C209        C210   1.408       .  A
C210        H213   1.084       .  S
C214       C1334   1.471       .  S
C214        C215   1.408       .  A
C214        C219   1.387       .  A
C215        C216   1.417       .  A
C215        H220   1.078       .  S
C216       C1369   1.510       .  S
C216        C217   1.415       .  A
C217        C218   1.404       .  A
C217        H221   1.083       .  S
C218       C1481   1.467       .  S
C218        C219   1.386       .  A
C219        H222   1.086       .  S
C223       C1321   1.495       .  S
C223        C224   1.409       .  A
C223        C228   1.407       .  A
C224        C225   1.403       .  A
C224        H229   1.084       .  S
C225       C1305   1.485       .  S
C225        C226   1.402       .  A
C226        C227   1.403       .  A
C226        H230   1.084       .  S
C227       C1289   1.484       .  S
C227        C228   1.405       .  A
C228        H231   1.081       .  S
C232       C1270   1.482       .  S
C232        C233   1.402       .  A
C232        C237   1.399       .  A
C233        C234   1.403       .  A
C233        H238   1.084       .  S
C234       C1542   1.477       .  S
C234        C235   1.412       .  A
C235        C236   1.407       .  A
C235        H239   1.084       .  S
C236       C1318   1.486       .  S
C236        C237   1.398       .  A
C237        H240   1.082       .  S
C241       C1254   1.483       .  S
C241        C242   1.407       .  A
C241        C246   1.407       .  A
C242        C243   1.405       .  A
C242        H247   1.082       .  S
C243       C1686   1.492       .  S
C243        C244   1.404       .  A
C244        C245   1.401       .  A
C244        H248   1.084       .  S
C245       C1302   1.485       .  S
C245        C246   1.406       .  A
C246        H249   1.084       .  S
C250       C1238   1.533       .  S
C250        C251   1.419       .  A
C250        C255   1.410       .  A
C251        C252   1.409       .  A
C251        H256   1.079       .  S
C252       C1625   1.492       .  S
C252        C253   1.406       .  A
C253        C254   1.393       .  A
C253        H257   1.084       .  S
C254       C1286   1.483       .  S
C254        C255   1.394       .  A
C255        H258   1.057       .  S
O259       Zr271   2.399       .  S
O259        C261   1.273   1_565  A
O260       Zr297   2.482       .  S
O260        C261   1.293       .  A
C261       C1401   1.473   1_545  S
O262       Zr274   2.440   1_554  S
O262        C264   1.280       .  A
O263       Zr298   2.421       .  S
O263        C264   1.285       .  A
C264       C1161   1.461       .  S
O265       Zr274   2.513   1_545  S
O265        C267   1.298       .  A
O266       Zr297   2.345       .  S
O266        C267   1.274       .  A
C267       C1257   1.497       .  S
O268       Zr271   2.508   1_554  S
O268        C270   1.299       .  A
O269       Zr298   2.323       .  S
O269        C270   1.270       .  A
C270       C1142   1.466       .  S
Zr271       O272   2.435       .  S
Zr271       O273   2.434       .  S
Zr271       O277   2.405       .  S
Zr271       O278   2.339   1_556  S
Zr271       O301   2.337   1_556  S
Zr271       O303   2.401   1_565  S
O272        H315   0.990       .  S
O273        H314   0.990       .  S
O273        H318   0.987       .  S
Zr274       O275   2.436       .  S
Zr274       O276   2.436       .  S
Zr274       O278   2.404   1_556  S
Zr274       O277   2.350       .  S
Zr274       O302   2.359   1_566  S
Zr274       O304   2.384   1_556  S
O275        H316   0.989       .  S
O275        H319   0.989       .  S
O276        H309   0.989   1_565  S
O277       Zr297   2.367   1_565  S
O278       Zr298   2.377       .  S
O278        H305   0.954       .  S
O279       Zr291   2.435       .  S
O279        C281   1.288   1_545  A
O280       Zr298   2.434       .  S
O280        C281   1.292       .  A
C281       C1177   1.466       .  S
O282       Zr294   2.391       .  S
O282        C284   1.275       .  A
O283       Zr297   2.475       .  S
O283        C284   1.293   1_556  A
C284       C1206   1.469       .  S
O285       Zr294   2.486       .  S
O285        C287   1.280   1_545  A
O286       Zr298   2.364       .  S
O286        C287   1.254       .  A
C287       C1190   1.477       .  S
O288       Zr291   2.522       .  S
O288        C290   1.301   1_554  A
O289       Zr297   2.346       .  S
O289        C290   1.273       .  A
C290       C1225   1.496       .  S
Zr291       O292   2.436       .  S
Zr291       O293   2.435       .  S
Zr291       O299   2.401       .  S
Zr291       O300   2.352       .  S
Zr291       O303   2.350   1_554  S
Zr291       O301   2.393   1_545  S
O292        H312   0.988       .  S
O292        H317   0.990       .  S
O293        H313   0.989       .  S
Zr294       O295   2.435       .  S
Zr294       O296   2.436       .  S
Zr294       O300   2.395       .  S
Zr294       O299   2.363       .  S
Zr294       O304   2.349   1_545  S
Zr294       O302   2.408       .  S
O295        H311   0.989       .  S
O296        H310   0.988       .  S
O296        H320   0.988       .  S
Zr297       O300   2.379   1_556  S
Zr297       O302   2.381   1_556  S
Zr297       O303   2.388       .  S
Zr298       O299   2.392   1_565  S
Zr298       O301   2.371       .  S
Zr298       O304   2.361       .  S
O299        H307   0.962       .  S
O302        H306   0.966   1_554  S
O303        H308   0.964       .  S
C321       C1110   1.507       .  S
C321        C322   1.408       .  A
C321        C326   1.417       .  A
C322        C323   1.401       .  A
C322        H327   1.083       .  S
C323       C1126   1.481       .  S
C323        C324   1.401       .  A
C324        C325   1.406       .  A
C324        H328   1.084       .  S
C325       C1097   1.500       .  S
C325        C326   1.414       .  A
C326        H329   1.082       .  S
C330       C1158   1.469       .  S
C330        C331   1.398       .  A
C330        C335   1.407       .  A
C331        C332   1.388       .  A
C331        H336   1.085       .  S
C332       C1510   1.467       .  S
C332        C333   1.400       .  A
C333        C334   1.403       .  A
C333        H337   1.083       .  S
C334       C1129   1.487       .  S
C334        C335   1.409       .  A
C335        H338   1.084       .  S
C339       C1078   1.471       .  S
C339        C340   1.391       .  A
C339        C344   1.408       .  A
C340        C341   1.390       .  A
C340        H345   1.085       .  S
C341       C1737   1.465       .  S
C341        C342   1.404       .  A
C342        C343   1.410       .  A
C342        H346   1.083       .  S
C343       C1113   1.505       .  S
C343        C344   1.415       .  A
C344        H347   1.083       .  S
C348       C1590   1.502       .  S
C348        C349   1.409       .  A
C348        C353   1.408       .  A
C349        C350   1.406       .  A
C349        H354   1.082       .  S
C350       C1094   1.492       .  S
C350        C351   1.410       .  A
C351        C352   1.409       .  A
C351        H355   1.083       .  S
C352       C1065   1.497       .  S
C352        C353   1.407       .  A
C353        H356   1.083       .  S
C357       C1014   1.480       .  S
C357        C358   1.402       .  A
C357        C362   1.402       .  A
C358        C359   1.400       .  A
C358        H363   1.082       .  S
C359       C1046   1.473       .  S
C359        C360   1.400       .  A
C360        C361   1.405       .  A
C360        H364   1.081       .  S
C361       C1030   1.488       .  S
C361        C362   1.400       .  A
C362        H365   1.084       .  S
C366       C1638   1.504       .  S
C366        C367   1.407       .  A
C366        C371   1.403       .  A
C367        C368   1.402       .  A
C367        H372   1.080       .  S
C368       C1049   1.491       .  S
C368        C369   1.401       .  A
C369        C370   1.405       .  A
C369        H373   1.082       .  S
C370       C1001   1.473       .  S
C370        C371   1.400       .  A
C371        H374   1.076       .  S
C375       C1465   1.518       .  S
C375        C376   1.416       .  A
C375        C380   1.421       .  A
C376        C377   1.419       .  A
C376        H381   1.075       .  S
C377       C1033   1.508       .  S
C377        C378   1.406       .  A
C378        C379   1.393       .  A
C378        H382   1.083       .  S
C379        C985   1.489       .  S
C379        C380   1.401       .  A
C380        H383   1.083       .  S
C384       C1753   1.457       .  S
C384        C385   1.392       .  A
C384        C389   1.386       .  A
C385        C386   1.399       .  A
C385        H390   1.080       .  S
C386       C1174   1.490       .  S
C386        C387   1.414       .  A
C387        C388   1.408       .  A
C387        H391   1.083       .  S
C388       C1017   1.471       .  S
C388        C389   1.395       .  A
C389        H392   1.085       .  S
O393       Zr405   2.409   1_554  S
O393        C395   1.273       .  A
O394       Zr431   2.455       .  S
O394        C395   1.287       .  A
C395       C1337   1.460   1_554  S
O396       Zr408   2.417   1_455  S
O396        C398   1.271       .  A
O397       Zr432   2.453       .  S
O397        C398   1.286       .  A
C398        C921   1.478   1_455  S
O399       Zr408   2.530       .  S
O399        C401   1.301   1_556  A
O400       Zr431   2.322       .  S
O400        C401   1.270       .  A
C401        C982   1.494       .  S
O402       Zr405   2.510       .  S
O402        C404   1.297   1_655  A
O403       Zr432   2.359       .  S
O403        C404   1.274       .  A
C404       C1062   1.489       .  S
Zr405       O406   2.433       .  S
Zr405       O407   2.434       .  S
Zr405       O411   2.407       .  S
Zr405       O412   2.352       .  S
Zr405       O435   2.351   1_655  S
Zr405       O437   2.402   1_556  S
O406        H449   0.988       .  S
O407        H448   0.987       .  S
O407        H452   0.990       .  S
Zr408       O409   2.435       .  S
Zr408       O410   2.433       .  S
Zr408       O412   2.420       .  S
Zr408       O411   2.342       .  S
Zr408       O436   2.347   1_556  S
Zr408       O438   2.402   1_655  S
O409        H450   0.989       .  S
O409        H453   0.986       .  S
O410        H443   0.989       .  S
O411       Zr431   2.365   1_556  S
O412       Zr432   2.396   1_655  S
O412        H439   0.962       .  S
O413       Zr425   2.415       .  S
O413        C415   1.283   1_554  A
O414       Zr432   2.445       .  S
O414        C415   1.290       .  A
C415        C966   1.469       .  S
O416       Zr428   2.415       .  S
O416        C418   1.283   1_455  A
O417       Zr431   2.453       .  S
O417        C418   1.293       .  A
C418        C950   1.475       .  S
O419       Zr428   2.494   1_556  S
O419        C421   1.294       .  A
O420       Zr432   2.340       .  S
O420        C421   1.271       .  A
C421       C1273   1.470       .  S
O422       Zr425   2.494   1_655  S
O422        C424   1.295       .  A
O423       Zr431   2.330       .  S
O423        C424   1.271       .  A
C424        C934   1.475       .  S
Zr425       O426   2.435       .  S
Zr425       O427   2.434       .  S
Zr425       O433   2.397       .  S
Zr425       O434   2.366   1_455  S
Zr425       O437   2.347   1_455  S
Zr425       O435   2.398   1_554  S
O426        H446   0.989       .  S
O426        H451   0.988       .  S
O427        H447   0.989   1_455  S
Zr428       O429   2.435       .  S
Zr428       O430   2.435       .  S
Zr428       O434   2.395   1_455  S
Zr428       O433   2.363       .  S
Zr428       O438   2.343   1_554  S
Zr428       O436   2.399   1_455  S
O429        H445   0.987       .  S
O430        H444   0.988       .  S
O430        H454   0.989       .  S
Zr431       O434   2.367       .  S
Zr431       O436   2.366       .  S
Zr431       O437   2.383       .  S
Zr432       O433   2.375   1_556  S
Zr432       O435   2.367       .  S
Zr432       O438   2.390       .  S
O433        H441   0.964       .  S
O436        H440   0.966       .  S
O437        H442   0.963       .  S
C455       C1721   1.495       .  S
C455        C456   1.426       .  A
C455        C460   1.395       .  A
C456        C457   1.423       .  A
C456        H461   1.083       .  S
C457        C902   1.499       .  S
C457        C458   1.399       .  A
C458        C459   1.392       .  A
C458        H462   1.084       .  S
C459        C889   1.465       .  S
C459        C460   1.386       .  A
C460        H463   1.082       .  S
C464        C854   1.511       .  S
C464        C465   1.414       .  A
C464        C469   1.410       .  A
C465        C466   1.408       .  A
C465        H470   1.083       .  S
C466        C905   1.496       .  S
C466        C467   1.410       .  A
C467        C468   1.411       .  A
C467        H471   1.083       .  S
C468        C870   1.501       .  S
C468        C469   1.408       .  A
C469        H472   1.082       .  S
C473        C953   1.523       .  S
C473        C474   1.414       .  A
C473        C478   1.429       .  A
C474        C475   1.401       .  A
C474        H479   1.073       .  S
C475       C1558   1.485       .  S
C475        C476   1.394       .  A
C476        C477   1.393       .  A
C476        H480   1.085       .  S
C477        C873   1.491       .  S
C477        C478   1.413       .  A
C478        H481   1.081       .  S
C482       C1430   1.473       .  S
C482        C483   1.394       .  A
C482        C487   1.396       .  A
C483        C484   1.400       .  A
C483        H488   1.074       .  S
C484       C1209   1.530       .  S
C484        C485   1.433       .  A
C485        C486   1.417       .  A
C485        H489   1.076       .  S
C486        C857   1.495       .  S
C486        C487   1.403       .  A
C487        H490   1.084       .  S
C491        C838   1.512       .  S
C491        C492   1.410       .  A
C491        C496   1.420       .  A
C492        C493   1.408       .  A
C492        H497   1.083       .  S
C493        C822   1.497       .  S
C493        C494   1.407       .  A
C494        C495   1.406       .  A
C494        H498   1.084       .  S
C495        C806   1.503       .  S
C495        C496   1.418       .  A
C496        H499   1.082       .  S
C500        C918   1.486       .  S
C500        C501   1.396       .  A
C500        C505   1.406       .  A
C501        C502   1.401       .  A
C501        H506   1.076       .  S
C502       C1609   1.529       .  S
C502        C503   1.430       .  A
C503        C504   1.417       .  A
C503        H507   1.075       .  S
C504        C841   1.510       .  S
C504        C505   1.411       .  A
C505        H508   1.083       .  S
C509       C1446   1.480       .  S
C509        C510   1.399       .  A
C509        C514   1.404       .  A
C510        C511   1.402       .  A
C510        H515   1.085       .  S
C511       C1222   1.486       .  S
C511        C512   1.409       .  A
C512        C513   1.411       .  A
C512        H516   1.083       .  S
C513        C825   1.489       .  S
C513        C514   1.406       .  A
C514        H517   1.084       .  S
C518       C1782   1.480       .  S
C518        C519   1.416       .  A
C518        C523   1.382       .  A
C519        C520   1.427       .  A
C519        H524   1.082       .  S
C520        C809   1.523       .  S
C520        C521   1.419       .  A
C521        C522   1.408       .  A
C521        H525   1.078       .  S
C522        C793   1.469       .  S
C522        C523   1.378       .  A
C523        H526   1.087       .  S
C527        C758   1.478       .  S
C527        C528   1.399       .  A
C527        C532   1.405       .  A
C528        C529   1.396       .  A
C528        H533   1.085       .  S
C529        C774   1.477       .  S
C529        C530   1.403       .  A
C530        C531   1.409       .  A
C530        H534   1.084       .  S
C531        C742   1.492       .  S
C531        C532   1.410       .  A
C532        H535   1.082       .  S
C536        C726   1.497       .  S
C536        C537   1.406       .  A
C536        C541   1.410       .  A
C537        C538   1.405       .  A
C537        H542   1.080       .  S
C538        C777   1.493       .  S
C538        C539   1.401       .  A
C539        C540   1.401       .  A
C539        H543   1.082       .  S
C540       C1798   1.479       .  S
C540        C541   1.407       .  A
C541        H544   1.083       .  S
C545       C1574   1.497       .  S
C545        C546   1.406       .  A
C545        C550   1.418       .  A
C546        C547   1.394       .  A
C546        H551   1.084       .  S
C547        C937   1.474       .  S
C547        C548   1.392       .  A
C548        C549   1.399       .  A
C548        H552   1.083       .  S
C549        C761   1.494       .  S
C549        C550   1.413       .  A
C550        H553   1.079       .  S
C554       C1145   1.513       .  S
C554        C555   1.408       .  A
C554        C559   1.411       .  A
C555        C556   1.408       .  A
C555        H560   1.074       .  S
C556       C1497   1.487       .  S
C556        C557   1.407       .  A
C557        C558   1.404       .  A
C557        H561   1.083       .  S
C558        C745   1.484       .  S
C558        C559   1.400       .  A
C559        H562   1.082       .  S
C563        C694   1.511       .  S
C563        C564   1.414       .  A
C563        C568   1.413       .  A
C564        C565   1.412       .  A
C564        H569   1.079       .  S
C565        C710   1.501       .  S
C565        C566   1.406       .  A
C566        C567   1.407       .  A
C566        H570   1.082       .  S
C567        C678   1.501       .  S
C567        C568   1.410       .  A
C568        H571   1.083       .  S
C572       C1769   1.505       .  S
C572        C573   1.402       .  A
C572        C577   1.420       .  A
C573        C574   1.391       .  A
C573        H578   1.083       .  S
C574       C1193   1.472       .  S
C574        C575   1.400       .  A
C575        C576   1.404       .  A
C575        H579   1.084       .  S
C576        C713   1.493       .  S
C576        C577   1.414       .  A
C577        H580   1.081       .  S
C581       C1670   1.482       .  S
C581        C582   1.411       .  A
C581        C586   1.390       .  A
C582        C583   1.416       .  A
C582        H587   1.083       .  S
C583        C697   1.502       .  S
C583        C584   1.416       .  A
C584        C585   1.409       .  A
C584        H588   1.083       .  S
C585        C662   1.481       .  S
C585        C586   1.389       .  A
C586        H589   1.086       .  S
C590        C969   1.502       .  S
C590        C591   1.402       .  A
C590        C595   1.413       .  A
C591        C592   1.400       .  A
C591        H596   1.081       .  S
C592       C1529   1.498       .  S
C592        C593   1.401       .  A
C593        C594   1.406       .  A
C593        H597   1.081       .  S
C594        C681   1.484       .  S
C594        C595   1.412       .  A
C595        H598   1.079       .  S
O599       Zr611   2.392       .  S
O599        C601   1.277   1_455  A
O600       Zr637   2.467       .  S
O600        C601   1.294       .  A
C601        C665   1.463   1_655  S
O602       Zr614   2.407       .  S
O602        C604   1.283   1_565  A
O603       Zr638   2.459       .  S
O603        C604   1.292       .  A
C604       C1081   1.473       .  S
O605       Zr614   2.489   1_655  S
O605        C607   1.294       .  A
O606       Zr637   2.360       .  S
O606        C607   1.277       .  A
C607       C1353   1.484       .  S
O608       Zr611   2.498   1_545  S
O608        C610   1.297       .  A
O609       Zr638   2.313       .  S
O609        C610   1.269       .  A
C610        C886   1.468       .  S
Zr611       O612   2.436       .  S
Zr611       O613   2.436       .  S
Zr611       O617   2.402       .  S
Zr611       O618   2.340       .  S
Zr611       O641   2.331   1_565  S
Zr611       O643   2.387   1_455  S
O612        H655   0.987       .  S
O613        H654   0.989       .  S
O613        H658   0.989       .  S
Zr614       O615   2.434       .  S
Zr614       O616   2.435       .  S
Zr614       O618   2.398       .  S
Zr614       O617   2.358       .  S
Zr614       O642   2.338   1_455  S
Zr614       O644   2.384   1_565  S
O615        H656   0.988       .  S
O615        H659   0.988       .  S
O616        H649   0.989   1_455  S
O617       Zr637   2.361   1_455  S
O618       Zr638   2.370   1_565  S
O618        H645   0.965       .  S
O619       Zr631   2.435   1_455  S
O619        C621   1.285       .  A
O620       Zr638   2.465       .  S
O620        C621   1.294       .  A
C621        C998   1.473       .  S
O622       Zr634   2.398       .  S
O622        C624   1.274   1_545  A
O623       Zr637   2.458       .  S
O623        C624   1.288       .  A
C624        C790   1.454   1_565  S
O625       Zr634   2.486       .  S
O625        C627   1.286   1_655  A
O626       Zr638   2.357       .  S
O626        C627   1.264       .  A
C627       C1241   1.477       .  S
O628       Zr631   2.519       .  S
O628        C630   1.300   1_545  A
O629       Zr637   2.332       .  S
O629        C630   1.272       .  A
C630        C729   1.484       .  S
Zr631       O632   2.435       .  S
Zr631       O633   2.434       .  S
Zr631       O639   2.399       .  S
Zr631       O640   2.344       .  S
Zr631       O643   2.347   1_545  S
Zr631       O641   2.388   1_655  S
O632        H652   0.986       .  S
O632        H657   0.989       .  S
O633        H653   0.989       .  S
Zr634       O635   2.434       .  S
Zr634       O636   2.434       .  S
Zr634       O640   2.396       .  S
Zr634       O639   2.356       .  S
Zr634       O644   2.355   1_655  S
Zr634       O642   2.400   1_545  S
O635        H651   0.988       .  S
O636        H650   0.990       .  S
O636        H660   0.989       .  S
Zr637       O640   2.375   1_565  S
Zr637       O642   2.378       .  S
Zr637       O643   2.381       .  S
Zr638       O639   2.397   1_455  S
Zr638       O641   2.380       .  S
Zr638       O644   2.365       .  S
O639        H647   0.962       .  S
O642        H646   0.964       .  S
O643        H648   0.963       .  S
C661        C662   1.404       .  A
C661        C666   1.397       .  A
C661        H668   1.085       .  S
C662        C663   1.413       .  A
C663        C664   1.408       .  A
C663        C670   1.505       .  S
C664        C665   1.405       .  A
C664        H669   1.084   1_455  S
C665        C666   1.411       .  A
C666        C667   1.510       .  S
C667        H671   1.111       .  S
C667        H672   1.110       .  S
C667        H673   1.109       .  S
C670        H674   1.111       .  S
C670        H675   1.108       .  S
C670        H676   1.111   1_455  S
C677        C678   1.408       .  A
C677        C682   1.406       .  A
C677        H684   1.083       .  S
C678        C679   1.423       .  A
C679        C680   1.410       .  A
C679        C686   1.509       .  S
C680        C681   1.401       .  A
C680        H685   1.084       .  S
C681        C682   1.410       .  A
C682        C683   1.506       .  S
C683        H687   1.110       .  S
C683        H688   1.108       .  S
C683        H689   1.111       .  S
C686        H690   1.106       .  S
C686        H691   1.110       .  S
C686        H692   1.111       .  S
C693        C694   1.410       .  A
C693        C698   1.410       .  A
C693        H700   1.084       .  S
C694        C695   1.423       .  A
C695        C696   1.414       .  A
C695        C702   1.508       .  S
C696        C697   1.405       .  A
C696        H701   1.084       .  S
C697        C698   1.416       .  A
C698        C699   1.507       .  S
C699        H703   1.111       .  S
C699        H704   1.107       .  S
C699        H705   1.111       .  S
C702        H706   1.106       .  S
C702        H707   1.110       .  S
C702        H708   1.111       .  S
C709        C710   1.409       .  A
C709        C714   1.411       .  A
C709        H716   1.084       .  S
C710        C711   1.419       .  A
C711        C712   1.410       .  A
C711        C718   1.507       .  S
C712        C713   1.403       .  A
C712        H717   1.084       .  S
C713        C714   1.413       .  A
C714        C715   1.507       .  S
C715        H719   1.111       .  S
C715        H720   1.110       .  S
C715        H721   1.111       .  S
C718        H722   1.107       .  S
C718        H723   1.110       .  S
C718        H724   1.111       .  S
C725        C726   1.413       .  A
C725        C730   1.413       .  A
C725        H732   1.084       .  S
C726        C727   1.417       .  A
C727        C728   1.400       .  A
C727        C734   1.513       .  S
C728        C729   1.407       .  A
C728        H733   1.085       .  S
C729        C730   1.411       .  A
C730        C731   1.505   1_565  S
C731        H735   1.111       .  S
C731        H736   1.110       .  S
C731        H737   1.110       .  S
C734        H738   1.106       .  S
C734        H739   1.111       .  S
C734        H740   1.111       .  S
C741        C742   1.408       .  A
C741        C746   1.406       .  A
C741        H748   1.084       .  S
C742        C743   1.418       .  A
C743        C744   1.406       .  A
C743        C750   1.508       .  S
C744        C745   1.403       .  A
C744        H749   1.084       .  S
C745        C746   1.411       .  A
C746        C747   1.506       .  S
C747        H751   1.111       .  S
C747        H752   1.110       .  S
C747        H753   1.111       .  S
C750        H754   1.107       .  S
C750        H755   1.110       .  S
C750        H756   1.111       .  S
C757        C758   1.403       .  A
C757        C762   1.409       .  A
C757        H764   1.084       .  S
C758        C759   1.409       .  A
C759        C760   1.399       .  A
C759        C766   1.509       .  S
C760        C761   1.409       .  A
C760        H765   1.084       .  S
C761        C762   1.418       .  A
C762        C763   1.506       .  S
C763        H767   1.111       .  S
C763        H768   1.107       .  S
C763        H769   1.110       .  S
C766        H770   1.109       .  S
C766        H771   1.111       .  S
C766        H772   1.111       .  S
C773        C774   1.399       .  A
C773        C778   1.403       .  A
C773        H780   1.084       .  S
C774        C775   1.408       .  A
C775        C776   1.405       .  A
C775        C782   1.506       .  S
C776        C777   1.410       .  A
C776        H781   1.083       .  S
C777        C778   1.420       .  A
C778        C779   1.510       .  S
C779        H783   1.111       .  S
C779        H784   1.106       .  S
C779        H785   1.110       .  S
C782        H786   1.109       .  S
C782        H787   1.111       .  S
C782        H788   1.111       .  S
C789        C790   1.403       .  A
C789        C794   1.399       .  A
C789        H796   1.085       .  S
C790        C791   1.406   1_545  A
C791        C792   1.402   1_565  A
C791        C798   1.505       .  S
C792        C793   1.406       .  A
C792        H797   1.084       .  S
C793        C794   1.409       .  A
C794        C795   1.507       .  S
C795        H799   1.111       .  S
C795        H800   1.110       .  S
C795        H801   1.110       .  S
C798        H802   1.110       .  S
C798        H803   1.111       .  S
C798        H804   1.111       .  S
C805        C806   1.402       .  A
C805        C810   1.416       .  A
C805        H812   1.084       .  S
C806        C807   1.413       .  A
C807        C808   1.415       .  A
C807        C814   1.506       .  S
C808        C809   1.413       .  A
C808        H813   1.083       .  S
C809        C810   1.430       .  A
C810        C811   1.509       .  S
C811        H815   1.111       .  S
C811        H816   1.107       .  S
C811        H817   1.110       .  S
C814        H818   1.110       .  S
C814        H819   1.111       .  S
C814        H820   1.111       .  S
C821        C822   1.407       .  A
C821        C826   1.409       .  A
C821        H828   1.084       .  S
C822        C823   1.419       .  A
C823        C824   1.409       .  A
C823        C830   1.508       .  S
C824        C825   1.402       .  A
C824        H829   1.084       .  S
C825        C826   1.414       .  A
C826        C827   1.507       .  S
C827        H831   1.111       .  S
C827        H832   1.109       .  S
C827        H833   1.111       .  S
C830        H834   1.107       .  S
C830        H835   1.110       .  S
C830        H836   1.111       .  S
C837        C838   1.410       .  A
C837        C842   1.415       .  A
C837        H844   1.084       .  S
C838        C839   1.419       .  A
C839        C840   1.416       .  A
C839        C846   1.506       .  S
C840        C841   1.408       .  A
C840        H845   1.084       .  S
C841        C842   1.418       .  A
C842        C843   1.507       .  S
C843        H847   1.111       .  S
C843        H848   1.108       .  S
C843        H849   1.110       .  S
C846        H850   1.108       .  S
C846        H851   1.110       .  S
C846        H852   1.111       .  S
C853        C854   1.410       .  A
C853        C858   1.408       .  A
C853        H860   1.083       .  S
C854        C855   1.427       .  A
C855        C856   1.412       .  A
C855        C862   1.508       .  S
C856        C857   1.401       .  A
C856        H861   1.084       .  S
C857        C858   1.413       .  A
C858        C859   1.507       .  S
C859        H863   1.111       .  S
C859        H864   1.109       .  S
C859        H865   1.111       .  S
C862        H866   1.111       .  S
C862        H867   1.107       .  S
C862        H868   1.110       .  S
C869        C870   1.406       .  A
C869        C874   1.406       .  A
C869        H876   1.084       .  S
C870        C871   1.421       .  A
C871        C872   1.414       .  A
C871        C878   1.507       .  S
C872        C873   1.405       .  A
C872        H877   1.084       .  S
C873        C874   1.413       .  A
C874        C875   1.508       .  S
C875        H879   1.110       .  S
C875        H880   1.109       .  S
C875        H881   1.110       .  S
C878        H882   1.108       .  S
C878        H883   1.110       .  S
C878        H884   1.111       .  S
C885        C886   1.409       .  A
C885        C890   1.390       .  A
C885        H892   1.079       .  S
C886        C887   1.405       .  A
C887        C888   1.404       .  A
C887        C894   1.504       .  S
C888        C889   1.411       .  A
C888        H893   1.082       .  S
C889        C890   1.401       .  A
C890        C891   1.510       .  S
C891        H895   1.111       .  S
C891        H896   1.108       .  S
C891        H897   1.108       .  S
C894        H898   1.110   1_545  S
C894        H899   1.111   1_545  S
C894        H900   1.111   1_545  S
C901        C902   1.406       .  A
C901        C906   1.415       .  A
C901        H908   1.084       .  S
C902        C903   1.423       .  A
C903        C904   1.408       .  A
C903        C910   1.511       .  S
C904        C905   1.400       .  A
C904        H909   1.084       .  S
C905        C906   1.416       .  A
C906        C907   1.505       .  S
C907        H911   1.111       .  S
C907        H912   1.110       .  S
C907        H913   1.111       .  S
C910        H914   1.107       .  S
C910        H915   1.110       .  S
C910        H916   1.111       .  S
C917        C918   1.403       .  A
C917        C922   1.411       .  A
C917        H924   1.084       .  S
C918        C919   1.418       .  A
C919        C920   1.395       .  A
C919        C926   1.507       .  S
C920        C921   1.398       .  A
C920        H925   1.083       .  S
C921        C922   1.419       .  A
C922        C923   1.506   1_655  S
C923        H927   1.111       .  S
C923        H928   1.109       .  S
C923        H929   1.110       .  S
C926        H930   1.108       .  S
C926        H931   1.109       .  S
C926        H932   1.110       .  S
C933        C934   1.410       .  A
C933        C938   1.392       .  A
C933        H940   1.085       .  S
C934        C935   1.409       .  A
C935        C936   1.407       .  A
C935        C942   1.505       .  S
C936        C937   1.410       .  A
C936        H941   1.084       .  S
C937        C938   1.407       .  A
C938        C939   1.512       .  S
C939        H943   1.111       .  S
C939        H944   1.106       .  S
C939        H945   1.111       .  S
C942        H946   1.110       .  S
C942        H947   1.110       .  S
C942        H948   1.111       .  S
C949        C950   1.388       .  A
C949        C954   1.400       .  A
C949        H956   1.086       .  S
C950        C951   1.411       .  A
C951        C952   1.411   1_655  A
C951        C958   1.507       .  S
C952        C953   1.415       .  A
C952        H957   1.082       .  S
C953        C954   1.437   1_455  A
C954        C955   1.503   1_655  S
C955        H959   1.110   1_455  S
C955        H960   1.104       .  S
C955        H961   1.107   1_455  S
C958        H962   1.109       .  S
C958        H963   1.110       .  S
C958        H964   1.111       .  S
C965        C966   1.407   1_554  A
C965        C970   1.413       .  A
C965        H972   1.084   1_554  S
C966        C967   1.403   1_556  A
C967        C968   1.390       .  A
C967        C974   1.509   1_554  S
C968        C969   1.412       .  A
C968        H973   1.082       .  S
C969        C970   1.420       .  A
C970        C971   1.507       .  S
C971        H975   1.111       .  S
C971        H976   1.110       .  S
C971        H977   1.105       .  S
C974        H978   1.110       .  S
C974        H979   1.107   1_556  S
C974        H980   1.111   1_556  S
C981        C982   1.409       .  A
C981        C986   1.393       .  A
C981        H988   1.085       .  S
C982        C983   1.416       .  A
C983        C984   1.420       .  A
C983        C990   1.503   1_554  S
C984        C985   1.410       .  A
C984        H989   1.083       .  S
C985        C986   1.409       .  A
C986        C987   1.511       .  S
C987        H991   1.111       .  S
C987        H992   1.100       .  S
C987        H993   1.111       .  S
C990        H994   1.110       .  S
C990        H995   1.110       .  S
C990        H996   1.111       .  S
C997        C998   1.396   1_655  A
C997       C1002   1.390       .  A
C997       H1004   1.080       .  S
C998        C999   1.411       .  A
C999       C1000   1.411       .  A
C999       C1006   1.494       .  S
C1000      C1001   1.404   1_455  A
C1000      H1005   1.084       .  S
C1001      C1002   1.412       .  A
C1002      C1003   1.512       .  S
C1003      H1007   1.111       .  S
C1003      H1008   1.109       .  S
C1003      H1009   1.108       .  S
C1006      H1010   1.110       .  S
C1006      H1011   1.109       .  S
C1006      H1012   1.111       .  S
C1013      C1014   1.403       .  A
C1013      C1018   1.395       .  A
C1013      H1020   1.084       .  S
C1014      C1015   1.417       .  A
C1015      C1016   1.406       .  A
C1015      C1022   1.507       .  S
C1016      C1017   1.402       .  A
C1016      H1021   1.084       .  S
C1017      C1018   1.411       .  A
C1018      C1019   1.510       .  S
C1019      H1023   1.111       .  S
C1019      H1024   1.108       .  S
C1019      H1025   1.110       .  S
C1022      H1026   1.107       .  S
C1022      H1027   1.110       .  S
C1022      H1028   1.111       .  S
C1029      C1030   1.410       .  A
C1029      C1034   1.408       .  A
C1029      H1036   1.084       .  S
C1030      C1031   1.410       .  A
C1031      C1032   1.396       .  A
C1031      C1038   1.513       .  S
C1032      C1033   1.414       .  A
C1032      H1037   1.075       .  S
C1033      C1034   1.419       .  A
C1034      C1035   1.507       .  S
C1035      H1039   1.111       .  S
C1035      H1040   1.107       .  S
C1035      H1041   1.110       .  S
C1038      H1042   1.110       .  S
C1038      H1043   1.106       .  S
C1038      H1044   1.111       .  S
C1045      C1046   1.403       .  A
C1045      C1050   1.407       .  A
C1045      H1052   1.084       .  S
C1046      C1047   1.404       .  A
C1047      C1048   1.398       .  A
C1047      C1054   1.506       .  S
C1048      C1049   1.410       .  A
C1048      H1053   1.084       .  S
C1049      C1050   1.417       .  A
C1050      C1051   1.508       .  S
C1051      H1055   1.111       .  S
C1051      H1056   1.107       .  S
C1051      H1057   1.110       .  S
C1054      H1058   1.109       .  S
C1054      H1059   1.111       .  S
C1054      H1060   1.111       .  S
C1061      C1062   1.405       .  A
C1061      C1066   1.396       .  A
C1061      H1068   1.084       .  S
C1062      C1063   1.411       .  A
C1063      C1064   1.419       .  A
C1063      C1070   1.503   1_455  S
C1064      C1065   1.414       .  A
C1064      H1069   1.083       .  S
C1065      C1066   1.416       .  A
C1066      C1067   1.512       .  S
C1067      H1071   1.111       .  S
C1067      H1072   1.111       .  S
C1067      H1073   1.106       .  S
C1070      H1074   1.110   1_655  S
C1070      H1075   1.110       .  S
C1070      H1076   1.111       .  S
C1077      C1078   1.409   1_545  A
C1077      C1082   1.413       .  A
C1077      H1084   1.084       .  S
C1078      C1079   1.409       .  A
C1079      C1080   1.387       .  A
C1079      C1086   1.512       .  S
C1080      C1081   1.401   1_565  A
C1080      H1085   1.082       .  S
C1081      C1082   1.408       .  A
C1082      C1083   1.499       .  S
C1083      H1087   1.111       .  S
C1083      H1088   1.110       .  S
C1083      H1089   1.111       .  S
C1086      H1090   1.109       .  S
C1086      H1091   1.110       .  S
C1086      H1092   1.111       .  S
C1093      C1094   1.402       .  A
C1093      C1098   1.408       .  A
C1093      H1100   1.084       .  S
C1094      C1095   1.414       .  A
C1095      C1096   1.410       .  A
C1095      C1102   1.507       .  S
C1096      C1097   1.408       .  A
C1096      H1101   1.084       .  S
C1097      C1098   1.418       .  A
C1098      C1099   1.505       .  S
C1099      H1103   1.111       .  S
C1099      H1104   1.106       .  S
C1099      H1105   1.110       .  S
C1102      H1106   1.108       .  S
C1102      H1107   1.110       .  S
C1102      H1108   1.111       .  S
C1109      C1110   1.411       .  A
C1109      C1114   1.409       .  A
C1109      H1116   1.084       .  S
C1110      C1111   1.418       .  A
C1111      C1112   1.405       .  A
C1111      C1118   1.506       .  S
C1112      C1113   1.408       .  A
C1112      H1117   1.083       .  S
C1113      C1114   1.421       .  A
C1114      C1115   1.509       .  S
C1115      H1119   1.111       .  S
C1115      H1120   1.107       .  S
C1115      H1121   1.110       .  S
C1118      H1122   1.105       .  S
C1118      H1123   1.110       .  S
C1118      H1124   1.111       .  S
C1125      C1126   1.400       .  A
C1125      C1130   1.403       .  A
C1125      H1132   1.084       .  S
C1126      C1127   1.412       .  A
C1127      C1128   1.408       .  A
C1127      C1134   1.506       .  S
C1128      C1129   1.406       .  A
C1128      H1133   1.084       .  S
C1129      C1130   1.418       .  A
C1130      C1131   1.510       .  S
C1131      H1135   1.111       .  S
C1131      H1136   1.108       .  S
C1131      H1137   1.110       .  S
C1134      H1138   1.110       .  S
C1134      H1139   1.111       .  S
C1134      H1140   1.111       .  S
C1141      C1142   1.397       .  A
C1141      C1146   1.409       .  A
C1141      H1148   1.085       .  S
C1142      C1143   1.409       .  A
C1143      C1144   1.397       .  A
C1143      C1150   1.509       .  S
C1144      C1145   1.410       .  A
C1144      H1149   1.082       .  S
C1145      C1146   1.434       .  A
C1146      C1147   1.507       .  S
C1147      H1151   1.108       .  S
C1147      H1152   1.111       .  S
C1147      H1153   1.104       .  S
C1150      H1154   1.108       .  S
C1150      H1155   1.110       .  S
C1150      H1156   1.111       .  S
C1157      C1158   1.405   1_554  A
C1157      C1162   1.408       .  A
C1157      H1164   1.084       .  S
C1158      C1159   1.412       .  A
C1159      C1160   1.389   1_556  A
C1159      C1166   1.510       .  S
C1160      C1161   1.396       .  A
C1160      H1165   1.083       .  S
C1161      C1162   1.412       .  A
C1162      C1163   1.506       .  S
C1163      H1167   1.111       .  S
C1163      H1168   1.110       .  S
C1163      H1169   1.111       .  S
C1166      H1170   1.108       .  S
C1166      H1171   1.109       .  S
C1166      H1172   1.111       .  S
C1173      C1174   1.406       .  A
C1173      C1178   1.405   1_545  A
C1173      H1180   1.084       .  S
C1174      C1175   1.426       .  A
C1175      C1176   1.397       .  A
C1175      C1182   1.513       .  S
C1176      C1177   1.394   1_545  A
C1176      H1181   1.086       .  S
C1177      C1178   1.413       .  A
C1178      C1179   1.507       .  S
C1179      H1183   1.111       .  S
C1179      H1184   1.109       .  S
C1179      H1185   1.108       .  S
C1182      H1186   1.109       .  S
C1182      H1187   1.107       .  S
C1182      H1188   1.111       .  S
C1189      C1190   1.412       .  A
C1189      C1194   1.394       .  A
C1189      H1196   1.084       .  S
C1190      C1191   1.407       .  A
C1191      C1192   1.409       .  A
C1191      C1198   1.503   1_565  S
C1192      C1193   1.409       .  A
C1192      H1197   1.084       .  S
C1193      C1194   1.403       .  A
C1194      C1195   1.509       .  S
C1195      H1199   1.112       .  S
C1195      H1200   1.110       .  S
C1195      H1201   1.110       .  S
C1198      H1202   1.110       .  S
C1198      H1203   1.110       .  S
C1198      H1204   1.111       .  S
C1205      C1206   1.389       .  A
C1205      C1210   1.407       .  A
C1205      H1212   1.085   1_554  S
C1206      C1207   1.411       .  A
C1207      C1208   1.397       .  A
C1207      C1214   1.502       .  S
C1208      C1209   1.407       .  A
C1208      H1213   1.076       .  S
C1209      C1210   1.444       .  A
C1210      C1211   1.506       .  S
C1211      H1215   1.111   1_554  S
C1211      H1216   1.111       .  S
C1211      H1217   1.099       .  S
C1214      H1218   1.110       .  S
C1214      H1219   1.106       .  S
C1214      H1220   1.110       .  S
C1221      C1222   1.411       .  A
C1221      C1226   1.418       .  A
C1221      H1228   1.083       .  S
C1222      C1223   1.408       .  A
C1223      C1224   1.394       .  A
C1223      C1230   1.511       .  S
C1224      C1225   1.412       .  A
C1224      H1229   1.085       .  S
C1225      C1226   1.413       .  A
C1226      C1227   1.503   1_556  S
C1227      H1231   1.111       .  S
C1227      H1232   1.110   1_554  S
C1227      H1233   1.110       .  S
C1230      H1234   1.111       .  S
C1230      H1235   1.108       .  S
C1230      H1236   1.111       .  S
C1237      C1238   1.423       .  A
C1237      C1242   1.406       .  A
C1237      H1244   1.070       .  S
C1238      C1239   1.438       .  A
C1239      C1240   1.402       .  A
C1239      C1246   1.509       .  S
C1240      C1241   1.397       .  A
C1240      H1245   1.086       .  S
C1241      C1242   1.402       .  A
C1242      C1243   1.506   1_455  S
C1243      H1247   1.111       .  S
C1243      H1248   1.110       .  S
C1243      H1249   1.104       .  S
C1246      H1250   1.109       .  S
C1246      H1251   1.110       .  S
C1246      H1252   1.106       .  S
C1253      C1254   1.410       .  A
C1253      C1258   1.419       .  A
C1253      H1260   1.083       .  S
C1254      C1255   1.406       .  A
C1255      C1256   1.392       .  A
C1255      C1262   1.510       .  S
C1256      C1257   1.412       .  A
C1256      H1261   1.084       .  S
C1257      C1258   1.416       .  A
C1258      C1259   1.504       .  S
C1259      H1263   1.111       .  S
C1259      H1264   1.110       .  S
C1259      H1265   1.110   1_545  S
C1262      H1266   1.110       .  S
C1262      H1267   1.105       .  S
C1262      H1268   1.111       .  S
C1269      C1270   1.411       .  A
C1269      C1274   1.409       .  A
C1269      H1276   1.084       .  S
C1270      C1271   1.411       .  A
C1271      C1272   1.396       .  A
C1271      C1278   1.512       .  S
C1272      C1273   1.406       .  A
C1272      H1277   1.085       .  S
C1273      C1274   1.408       .  A
C1274      C1275   1.505   1_556  S
C1275      H1279   1.111       .  S
C1275      H1280   1.110       .  S
C1275      H1281   1.108       .  S
C1278      H1282   1.106       .  S
C1278      H1283   1.111       .  S
C1278      H1284   1.111       .  S
C1285      C1286   1.402       .  A
C1285      C1290   1.408       .  A
C1285      H1292   1.084       .  S
C1286      C1287   1.416       .  A
C1287      C1288   1.402       .  A
C1287      C1294   1.510       .  S
C1288      C1289   1.400       .  A
C1288      H1293   1.084       .  S
C1289      C1290   1.416       .  A
C1290      C1291   1.507       .  S
C1291      H1295   1.111       .  S
C1291      H1296   1.109       .  S
C1291      H1297   1.111       .  S
C1294      H1298   1.108       .  S
C1294      H1299   1.110       .  S
C1294      H1300   1.110       .  S
C1301      C1302   1.404       .  A
C1301      C1306   1.407       .  A
C1301      H1308   1.084       .  S
C1302      C1303   1.415       .  A
C1303      C1304   1.404       .  A
C1303      C1310   1.508       .  S
C1304      C1305   1.402       .  A
C1304      H1309   1.084       .  S
C1305      C1306   1.415       .  A
C1306      C1307   1.507       .  S
C1307      H1311   1.111       .  S
C1307      H1312   1.108       .  S
C1307      H1313   1.110       .  S
C1310      H1314   1.108       .  S
C1310      H1315   1.110       .  S
C1310      H1316   1.111       .  S
C1317      C1318   1.402       .  A
C1317      C1322   1.410       .  A
C1317      H1324   1.084       .  S
C1318      C1319   1.415       .  A
C1319      C1320   1.402       .  A
C1319      C1326   1.510       .  S
C1320      C1321   1.405       .  A
C1320      H1325   1.084       .  S
C1321      C1322   1.421       .  A
C1322      C1323   1.508       .  S
C1323      H1327   1.111       .  S
C1323      H1328   1.107       .  S
C1323      H1329   1.110       .  S
C1326      H1330   1.107       .  S
C1326      H1331   1.111       .  S
C1326      H1332   1.111       .  S
C1333      C1334   1.405       .  A
C1333      C1338   1.403       .  A
C1333      H1340   1.084       .  S
C1334      C1335   1.409       .  A
C1335      C1336   1.400       .  A
C1335      C1342   1.506       .  S
C1336      C1337   1.403       .  A
C1336      H1341   1.085       .  S
C1337      C1338   1.407       .  A
C1338      C1339   1.506   1_556  S
C1339      H1343   1.111       .  S
C1339      H1344   1.110       .  S
C1339      H1345   1.111       .  S
C1342      H1346   1.110       .  S
C1342      H1347   1.110       .  S
C1342      H1348   1.111       .  S
C1349      C1350   1.411       .  A
C1349      C1354   1.416       .  A
C1349      H1356   1.084       .  S
C1350      C1351   1.413       .  A
C1351      C1352   1.390       .  A
C1351      C1358   1.509       .  S
C1352      C1353   1.404       .  A
C1352      H1357   1.086       .  S
C1353      C1354   1.414       .  A
C1354      C1355   1.504       .  S
C1355      H1359   1.111       .  S
C1355      H1360   1.111       .  S
C1355      H1361   1.110       .  S
C1358      H1362   1.106       .  S
C1358      H1363   1.110       .  S
C1358      H1364   1.111       .  S
C1365      C1366   1.402       .  A
C1365      C1370   1.412       .  A
C1365      H1372   1.084       .  S
C1366      C1367   1.409       .  A
C1367      C1368   1.408       .  A
C1367      C1374   1.506       .  S
C1368      C1369   1.412       .  A
C1368      H1373   1.083       .  S
C1369      C1370   1.426       .  A
C1370      C1371   1.508       .  S
C1371      H1375   1.111       .  S
C1371      H1376   1.107       .  S
C1371      H1377   1.110       .  S
C1374      H1378   1.110       .  S
C1374      H1379   1.111       .  S
C1374      H1380   1.111       .  S
C1381      C1382   1.406       .  A
C1381      C1386   1.409       .  A
C1381      H1388   1.084       .  S
C1382      C1383   1.418       .  A
C1383      C1384   1.408       .  A
C1383      C1390   1.508       .  S
C1384      C1385   1.403       .  A
C1384      H1389   1.084       .  S
C1385      C1386   1.414       .  A
C1386      C1387   1.506       .  S
C1387      H1391   1.111       .  S
C1387      H1392   1.109       .  S
C1387      H1393   1.111       .  S
C1390      H1394   1.108       .  S
C1390      H1395   1.110       .  S
C1390      H1396   1.111       .  S
C1397      C1398   1.403       .  A
C1397      C1402   1.407       .  A
C1397      H1404   1.084       .  S
C1398      C1399   1.415       .  A
C1399      C1400   1.404       .  A
C1399      C1406   1.508       .  S
C1400      C1401   1.403       .  A
C1400      H1405   1.085       .  S
C1401      C1402   1.414       .  A
C1402      C1403   1.506   1_565  S
C1403      H1407   1.111       .  S
C1403      H1408   1.109       .  S
C1403      H1409   1.110       .  S
C1406      H1410   1.111       .  S
C1406      H1411   1.108       .  S
C1406      H1412   1.111       .  S
C1413      C1414   1.407       .  A
C1413      C1418   1.414       .  A
C1413      H1420   1.084       .  S
C1414      C1415   1.417       .  A
C1415      C1416   1.412       .  A
C1415      C1422   1.507       .  S
C1416      C1417   1.407       .  A
C1416      H1421   1.084       .  S
C1417      C1418   1.418       .  A
C1418      C1419   1.507       .  S
C1419      H1423   1.111       .  S
C1419      H1424   1.108       .  S
C1419      H1425   1.110       .  S
C1422      H1426   1.108       .  S
C1422      H1427   1.111       .  S
C1422      H1428   1.111       .  S
C1429      C1430   1.400       .  A
C1429      C1434   1.407       .  A
C1429      H1436   1.084       .  S
C1430      C1431   1.412       .  A
C1431      C1432   1.397       .  A
C1431      C1438   1.511       .  S
C1432      C1433   1.400       .  A
C1432      H1437   1.082       .  S
C1433      C1434   1.416       .  A
C1434      C1435   1.506       .  S
C1435      H1439   1.111       .  S
C1435      H1440   1.110       .  S
C1435      H1441   1.110       .  S
C1438      H1442   1.110       .  S
C1438      H1443   1.102       .  S
C1438      H1444   1.111       .  S
C1445      C1446   1.407       .  A
C1445      C1450   1.412       .  A
C1445      H1452   1.084       .  S
C1446      C1447   1.408       .  A
C1447      C1448   1.397       .  A
C1447      C1454   1.509       .  S
C1448      C1449   1.407       .  A
C1448      H1453   1.084       .  S
C1449      C1450   1.415       .  A
C1450      C1451   1.506       .  S
C1451      H1455   1.111       .  S
C1451      H1456   1.110       .  S
C1451      H1457   1.111       .  S
C1454      H1458   1.109       .  S
C1454      H1459   1.111       .  S
C1454      H1460   1.111       .  S
C1461      C1462   1.408       .  A
C1461      C1466   1.428       .  A
C1461      H1468   1.084       .  S
C1462      C1463   1.414       .  A
C1463      C1464   1.390       .  A
C1463      C1470   1.493       .  S
C1464      C1465   1.399       .  A
C1464      H1469   1.084       .  S
C1465      C1466   1.432       .  A
C1466      C1467   1.503       .  S
C1467      H1471   1.111       .  S
C1467      H1472   1.110       .  S
C1467      H1473   1.109       .  S
C1470      H1474   1.101       .  S
C1470      H1475   1.111       .  S
C1470      H1476   1.111       .  S
C1477      C1478   1.399       .  A
C1477      C1482   1.391       .  A
C1477      H1484   1.081       .  S
C1478      C1479   1.411       .  A
C1479      C1480   1.407       .  A
C1479      C1486   1.504       .  S
C1480      C1481   1.403       .  A
C1480      H1485   1.084       .  S
C1481      C1482   1.409       .  A
C1482      C1483   1.511       .  S
C1483      H1487   1.111       .  S
C1483      H1488   1.110       .  S
C1483      H1489   1.110       .  S
C1486      H1490   1.110       .  S
C1486      H1491   1.109       .  S
C1486      H1492   1.111       .  S
C1493      C1494   1.412       .  A
C1493      C1498   1.417       .  A
C1493      H1500   1.084       .  S
C1494      C1495   1.414       .  A
C1495      C1496   1.391       .  A
C1495      C1502   1.503       .  S
C1496      C1497   1.398       .  A
C1496      H1501   1.082       .  S
C1497      C1498   1.412       .  A
C1498      C1499   1.504       .  S
C1499      H1503   1.111       .  S
C1499      H1504   1.110       .  S
C1499      H1505   1.110       .  S
C1502      H1506   1.111       .  S
C1502      H1507   1.097       .  S
C1502      H1508   1.110       .  S
C1509      C1510   1.382       .  A
C1509      C1514   1.388       .  A
C1509      H1516   1.087       .  S
C1510      C1511   1.413       .  A
C1511      C1512   1.410       .  A
C1511      C1518   1.503       .  S
C1512      C1513   1.404       .  A
C1512      H1517   1.084       .  S
C1513      C1514   1.438       .  A
C1514      C1515   1.513       .  S
C1515      H1519   1.111       .  S
C1515      H1520   1.089       .  S
C1515      H1521   1.112   1_556  S
C1518      H1522   1.108       .  S
C1518      H1523   1.110       .  S
C1518      H1524   1.110       .  S
C1525      C1526   1.400       .  A
C1525      C1530   1.416       .  A
C1525      H1532   1.083       .  S
C1526      C1527   1.413       .  A
C1527      C1528   1.388       .  A
C1527      C1534   1.495   1_554  S
C1528      C1529   1.400       .  A
C1528      H1533   1.084       .  S
C1529      C1530   1.428       .  A
C1530      C1531   1.505       .  S
C1531      H1535   1.111       .  S
C1531      H1536   1.110       .  S
C1531      H1537   1.106       .  S
C1534      H1538   1.106       .  S
C1534      H1539   1.110       .  S
C1534      H1540   1.111       .  S
C1541      C1542   1.392       .  A
C1541      C1546   1.389       .  A
C1541      H1548   1.086       .  S
C1542      C1543   1.415       .  A
C1543      C1544   1.417       .  A
C1543      C1550   1.503       .  S
C1544      C1545   1.407       .  A
C1544      H1549   1.084       .  S
C1545      C1546   1.418       .  A
C1546      C1547   1.508       .  S
C1547      H1551   1.110       .  S
C1547      H1552   1.104       .  S
C1547      H1553   1.109       .  S
C1550      H1554   1.111       .  S
C1550      H1555   1.110       .  S
C1550      H1556   1.111       .  S
C1557      C1558   1.395       .  A
C1557      C1562   1.391       .  A
C1557      H1564   1.085       .  S
C1558      C1559   1.421       .  A
C1559      C1560   1.408       .  A
C1559      C1566   1.497       .  S
C1560      C1561   1.397       .  A
C1560      H1565   1.084       .  S
C1561      C1562   1.419       .  A
C1562      C1563   1.501       .  S
C1563      H1567   1.111       .  S
C1563      H1568   1.110       .  S
C1563      H1569   1.107       .  S
C1566      H1570   1.107       .  S
C1566      H1571   1.109       .  S
C1566      H1572   1.111       .  S
C1573      C1574   1.411       .  A
C1573      C1578   1.399       .  A
C1573      H1580   1.083       .  S
C1574      C1575   1.418       .  A
C1575      C1576   1.409       .  A
C1575      C1582   1.507       .  S
C1576      C1577   1.405       .  A
C1576      H1581   1.084       .  S
C1577      C1578   1.408       .  A
C1578      C1579   1.509       .  S
C1579      H1583   1.111       .  S
C1579      H1584   1.110       .  S
C1579      H1585   1.108       .  S
C1582      H1586   1.110       .  S
C1582      H1587   1.105       .  S
C1582      H1588   1.111       .  S
C1589      C1590   1.414       .  A
C1589      C1594   1.410       .  A
C1589      H1596   1.082       .  S
C1590      C1591   1.420       .  A
C1591      C1592   1.403       .  A
C1591      C1598   1.510       .  S
C1592      C1593   1.405       .  A
C1592      H1597   1.086       .  S
C1593      C1594   1.410       .  A
C1594      C1595   1.506       .  S
C1595      H1599   1.111       .  S
C1595      H1600   1.110       .  S
C1595      H1601   1.111       .  S
C1598      H1602   1.110       .  S
C1598      H1603   1.106       .  S
C1598      H1604   1.111       .  S
C1605      C1606   1.394       .  A
C1605      C1610   1.407       .  A
C1605      H1612   1.086       .  S
C1606      C1607   1.412       .  A
C1607      C1608   1.397       .  A
C1607      C1614   1.501       .  S
C1608      C1609   1.406       .  A
C1608      H1613   1.076       .  S
C1609      C1610   1.440       .  A
C1610      C1611   1.502       .  S
C1611      H1615   1.111       .  S
C1611      H1616   1.111       .  S
C1611      H1617   1.101       .  S
C1614      H1618   1.107       .  S
C1614      H1619   1.107       .  S
C1614      H1620   1.111       .  S
C1621      C1622   1.396       .  A
C1621      C1626   1.399       .  A
C1621      H1628   1.086       .  S
C1622      C1623   1.416       .  A
C1623      C1624   1.405       .  A
C1623      C1630   1.508       .  S
C1624      C1625   1.406       .  A
C1624      H1629   1.084       .  S
C1625      C1626   1.421       .  A
C1626      C1627   1.506       .  S
C1627      H1631   1.110       .  S
C1627      H1632   1.111       .  S
C1627      H1633   1.102       .  S
C1630      H1634   1.108       .  S
C1630      H1635   1.104       .  S
C1630      H1636   1.111       .  S
C1637      C1638   1.407       .  A
C1637      C1642   1.391       .  A
C1637      H1644   1.082       .  S
C1638      C1639   1.432       .  A
C1639      C1640   1.411       .  A
C1639      C1646   1.507       .  S
C1640      C1641   1.398       .  A
C1640      H1645   1.084       .  S
C1641      C1642   1.411       .  A
C1642      C1643   1.509       .  S
C1643      H1647   1.110       .  S
C1643      H1648   1.111       .  S
C1643      H1649   1.110       .  S
C1646      H1650   1.104       .  S
C1646      H1651   1.107       .  S
C1646      H1652   1.111       .  S
C1653      C1654   1.400       .  A
C1653      C1658   1.409       .  A
C1653      H1660   1.084       .  S
C1654      C1655   1.423       .  A
C1655      C1656   1.402       .  A
C1655      C1662   1.508       .  S
C1656      C1657   1.398       .  A
C1656      H1661   1.084       .  S
C1657      C1658   1.421       .  A
C1658      C1659   1.504       .  S
C1659      H1663   1.111       .  S
C1659      H1664   1.104       .  S
C1659      H1665   1.110       .  S
C1662      H1666   1.107       .  S
C1662      H1667   1.110       .  S
C1662      H1668   1.111       .  S
C1669      C1670   1.403       .  A
C1669      C1674   1.399       .  A
C1669      H1676   1.085       .  S
C1670      C1671   1.412       .  A
C1671      C1672   1.409       .  A
C1671      C1678   1.505       .  S
C1672      C1673   1.406       .  A
C1672      H1677   1.084       .  S
C1673      C1674   1.413       .  A
C1674      C1675   1.507       .  S
C1675      H1679   1.111   1_455  S
C1675      H1680   1.106       .  S
C1675      H1681   1.110   1_455  S
C1678      H1682   1.111       .  S
C1678      H1683   1.109       .  S
C1678      H1684   1.111       .  S
C1685      C1686   1.401       .  A
C1685      C1690   1.395       .  A
C1685      H1692   1.084       .  S
C1686      C1687   1.422       .  A
C1687      C1688   1.412       .  A
C1687      C1694   1.505       .  S
C1688      C1689   1.401       .  A
C1688      H1693   1.084       .  S
C1689      C1690   1.418       .  A
C1690      C1691   1.509       .  S
C1691      H1695   1.111       .  S
C1691      H1696   1.108       .  S
C1691      H1697   1.108       .  S
C1694      H1698   1.106       .  S
C1694      H1699   1.110       .  S
C1694      H1700   1.111       .  S
C1701      C1702   1.402       .  A
C1701      C1706   1.395       .  A
C1701      H1708   1.080       .  S
C1702      C1703   1.408       .  A
C1703      C1704   1.412       .  A
C1703      C1710   1.504       .  S
C1704      C1705   1.409       .  A
C1704      H1709   1.084       .  S
C1705      C1706   1.408       .  A
C1706      C1707   1.509       .  S
C1707      H1711   1.111       .  S
C1707      H1712   1.110       .  S
C1707      H1713   1.110       .  S
C1710      H1714   1.110       .  S
C1710      H1715   1.111       .  S
C1710      H1716   1.111       .  S
C1717      C1718   1.395       .  A
C1717      C1722   1.400       .  A
C1717      H1724   1.085       .  S
C1718      C1719   1.422       .  A
C1719      C1720   1.409       .  A
C1719      C1726   1.509       .  S
C1720      C1721   1.402       .  A
C1720      H1725   1.084       .  S
C1721      C1722   1.427       .  A
C1722      C1723   1.511       .  S
C1723      H1727   1.111       .  S
C1723      H1728   1.110       .  S
C1723      H1729   1.107       .  S
C1726      H1730   1.108       .  S
C1726      H1731   1.107       .  S
C1726      H1732   1.111       .  S
C1733      C1734   1.410       .  A
C1733      C1738   1.390       .  A
C1733      H1740   1.085       .  S
C1734      C1735   1.410       .  A
C1735      C1736   1.409       .  A
C1735      C1742   1.504       .  S
C1736      C1737   1.406       .  A
C1736      H1741   1.084       .  S
C1737      C1738   1.403       .  A
C1738      C1739   1.509       .  S
C1739      H1743   1.111   1_565  S
C1739      H1744   1.110       .  S
C1739      H1745   1.110   1_565  S
C1742      H1746   1.110       .  S
C1742      H1747   1.111       .  S
C1742      H1748   1.111       .  S
C1749      C1750   1.398       .  A
C1749      C1754   1.406       .  A
C1749      H1756   1.084       .  S
C1750      C1751   1.426       .  A
C1751      C1752   1.385       .  A
C1751      C1758   1.500       .  S
C1752      C1753   1.383       .  A
C1752      H1757   1.086       .  S
C1753      C1754   1.418       .  A
C1754      C1755   1.506       .  S
C1755      H1759   1.110       .  S
C1755      H1760   1.110       .  S
C1755      H1761   1.108       .  S
C1758      H1762   1.110       .  S
C1758      H1763   1.096       .  S
C1758      H1764   1.110   1_545  S
C1765      C1766   1.408       .  A
C1765      C1770   1.408       .  A
C1765      H1772   1.085       .  S
C1766      C1767   1.406       .  A
C1767      C1768   1.398       .  A
C1767      C1774   1.508       .  S
C1768      C1769   1.416       .  A
C1768      H1773   1.081       .  S
C1769      C1770   1.417       .  A
C1770      C1771   1.506       .  S
C1771      H1775   1.111       .  S
C1771      H1776   1.108       .  S
C1771      H1777   1.110       .  S
C1774      H1778   1.111       .  S
C1774      H1779   1.109       .  S
C1774      H1780   1.111       .  S
C1781      C1782   1.405       .  A
C1781      C1786   1.402       .  A
C1781      H1788   1.085       .  S
C1782      C1783   1.412       .  A
C1783      C1784   1.406       .  A
C1783      C1790   1.506       .  S
C1784      C1785   1.406       .  A
C1784      H1789   1.084       .  S
C1785      C1786   1.410       .  A
C1786      C1787   1.500   1_545  S
C1787      H1791   1.111       .  S
C1787      H1792   1.108       .  S
C1787      H1793   1.104       .  S
C1790      H1794   1.111       .  S
C1790      H1795   1.110       .  S
C1790      H1796   1.111       .  S
C1797      C1798   1.410       .  A
C1797      C1802   1.421       .  A
C1797      H1804   1.083       .  S
C1798      C1799   1.402       .  A
C1799      C1800   1.387       .  A
C1799      C1806   1.514       .  S
C1800      C1801   1.419       .  A
C1800      H1805   1.081       .  S
C1801      C1802   1.418       .  A
C1802      C1803   1.504       .  S
C1803      H1807   1.111       .  S
C1803      H1808   1.110       .  S
C1803      H1809   1.110       .  S
C1806      H1810   1.110       .  S
C1806      H1811   1.110       .  S
C1806      H1812   1.111       .  S
