geometry optimzed in LAMMPS
_audit_creation_date              2020-11-30 
_audit_creation_method            'lammps2cif' 
_symmetry_space_group_name_H-M    'P1' 
_symmetry_Int_Tables_number       1 
_symmetry_cell_setting            triclinic 
loop_ 
_symmetry_equiv_pos_as_xyz 
  x,y,z 
_cell_length_a                    42.07502829 
_cell_length_b                    42.07031002154206 
_cell_length_c                    42.067404744250915 
_cell_angle_alpha                 89.99466130426669 
_cell_angle_beta                  90.00546928561042 
_cell_angle_gamma                 90.00398082204886 
loop_ 
_atom_site_label 
_atom_site_type_symbol 
_atom_site_fract_x 
_atom_site_fract_y 
_atom_site_fract_z 
_atom_site_charge 
O1          O  0.29500699  0.45442551  0.22415885    -0.80400
O2          O  0.20447197  0.45830919  0.27471918    -0.80400
O3          O  0.27342079  0.45492307  0.29522051    -0.80400
O4          O  0.22486098  0.45874790  0.20328555    -0.80300
O5          O  0.23777566  0.47686960  0.32293645    -0.80500
O6          O  0.26380776  0.47670401  0.17696192    -0.80400
O7          O  0.17835891  0.47911420  0.23685119    -0.80400
O8          O  0.32255836  0.47149409  0.26256339    -0.80400
C9          C  0.32076977  0.45447575  0.23762604     1.09300
C10         C  0.17909480  0.46013662  0.26046696     1.09200
C11         C  0.26079157  0.45727523  0.32134241     1.09300
C12         C  0.23871028  0.46002198  0.17770149     1.09200
O13         O  0.27949908  0.04296179  0.20428773    -0.80400
O14         O  0.22906859  0.04485896  0.29490273    -0.80500
O15         O  0.30007679  0.04072819  0.27520572    -0.80400
O16         O  0.20732930  0.04632214  0.22621271    -0.80400
O17         O  0.17976751  0.02703899  0.26372822    -0.80400
O18         O  0.32600687  0.02010296  0.23755361    -0.80400
O19         O  0.23977263  0.02614235  0.17807165    -0.80300
O20         O  0.26580613  0.02390886  0.32220732    -0.80400
Co21       Co  0.28756893  0.99877203  0.21427345     1.51500
Co22       Co  0.21647635  0.50156571  0.28533879     1.51700
Co23       Co  0.28701492  0.49785030  0.28540398     1.51600
Co24       Co  0.21605877  0.00249361  0.21459840     1.51500
O25         O  0.25184779  0.50029330  0.24971032    -1.42300
C26         C  0.26520168  0.04243767  0.17886991     1.09200
C27         C  0.24275873  0.04353696  0.32054217     1.09300
C28         C  0.32590300  0.03733433  0.26230893     1.09300
C29         C  0.18172147  0.04601445  0.24021351     1.09200
O30         O  0.46098470  0.29636881  0.27580462    -0.80400
O31         O  0.45496389  0.20513286  0.22675712    -0.80400
O32         O  0.45869237  0.27496360  0.20406805    -0.80400
O33         O  0.45761741  0.22734019  0.29566578    -0.80300
O34         O  0.47619610  0.23577661  0.17776656    -0.80500
O35         O  0.47964006  0.26312247  0.32315407    -0.80400
O36         O  0.47370450  0.17759984  0.26456562    -0.80400
O37         O  0.48036333  0.32210570  0.23723072    -0.80400
C38         C  0.46340201  0.32196998  0.26222877     1.09300
C39         C  0.45468216  0.17971691  0.24108763     1.09200
C40         C  0.45974625  0.26104308  0.17846232     1.09300
C41         C  0.45974185  0.24034699  0.32157747     1.09200
O42         O  0.04763346  0.27162501  0.29470520    -0.80400
O43         O  0.04292552  0.22035551  0.20382103    -0.80500
O44         O  0.04679588  0.29291600  0.22384638    -0.80400
O45         O  0.04331810  0.20084546  0.27436344    -0.80400
O46         O  0.02134787  0.17444504  0.23746169    -0.80400
O47         O  0.02924163  0.32042834  0.26205143    -0.80400
O48         O  0.02664483  0.23505904  0.32223712    -0.80300
O49         O  0.02563847  0.25980197  0.17754350    -0.80400
Co50       Co  0.00429289  0.28431134  0.28543633     1.51500
Co51       Co  0.49899994  0.21260179  0.21507709     1.51700
Co52       Co  0.50269796  0.28410674  0.21408263     1.51600
Co53       Co  0.00050445  0.21378901  0.28557853     1.51500
O54         O  0.00194144  0.24882962  0.24984375    -1.42300
C55         C  0.04612402  0.25821725  0.32053495     1.09200
C56         C  0.04214494  0.23452459  0.17839026     1.09300
C57         C  0.04613898  0.31882601  0.23705881     1.09300
C58         C  0.04063681  0.17519780  0.26077187     1.09200
O59         O  0.20679130  0.21757786  0.45924335    -0.80400
O60         O  0.29962998  0.28225995  0.45931973    -0.80400
O61         O  0.22186461  0.29708946  0.45770907    -0.80400
O62         O  0.28624709  0.20406475  0.46090110    -0.80300
O63         O  0.26014541  0.32415072  0.47746882    -0.80500
O64         O  0.24747397  0.17711535  0.47933776    -0.80400
O65         O  0.32665995  0.24421276  0.47945518    -0.80400
O66         O  0.17985639  0.25671570  0.47704169    -0.80400
C67         C  0.18103330  0.23123370  0.46068672     1.09300
C68         C  0.32502492  0.26788565  0.46046839     1.09200
C69         C  0.23629956  0.32253607  0.45874813     1.09300
C70         C  0.27269505  0.17832480  0.46258749     1.09200
O71         O  0.23420182  0.20688149  0.04643321    -0.80400
O72         O  0.26995878  0.29552573  0.04568809    -0.80500
O73         O  0.20810229  0.26972933  0.04462128    -0.80400
O74         O  0.29684480  0.23408643  0.04737467    -0.80400
O75         O  0.32378183  0.27103748  0.02738462    -0.80400
O76         O  0.18155470  0.23200079  0.02600408    -0.80400
O77         O  0.27211531  0.18023540  0.02827706    -0.80300
O78         O  0.23312694  0.32236026  0.02532173    -0.80400
Co79       Co  0.22072615  0.21206067  0.00262741     1.51500
Co80       Co  0.28489556  0.28921528  0.50238293     1.51700
Co81       Co  0.21453397  0.28317687  0.50100429     1.51600
Co82       Co  0.29162430  0.21902636  0.00394166     1.51500
O83         O  0.25287701  0.25068527  0.49822208    -1.42300
C84         C  0.24733899  0.18099993  0.04537451     1.09200
C85         C  0.25630207  0.32117391  0.04463848     1.09300
C86         C  0.18223632  0.25670724  0.04319377     1.09300
C87         C  0.32252917  0.24777208  0.04656968     1.09200
C88         C  0.30100450  0.46945673  0.39948641     0.02900
C89         C  0.27691646  0.46663555  0.37670118    -0.13300
C90         C  0.28054564  0.44855682  0.34941767     0.00400
C91         C  0.30754211  0.42855835  0.34700711    -0.11800
C92         C  0.32999861  0.42708472  0.37201557     0.02900
C93         C  0.32692568  0.44834153  0.39779944    -0.11200
H94         H  0.25456184  0.47802365  0.37980733     0.08500
H95         H  0.31088787  0.41400958  0.32602603     0.06000
H96         H  0.34415182  0.44776490  0.41694719     0.05900
C97         C  0.37972861  0.35587844  0.39804920     0.02900
C98         C  0.35590965  0.37936028  0.39669879    -0.13300
C99         C  0.35559380  0.40245674  0.37236322     0.00400
C100        C  0.37961050  0.40186915  0.34894176    -0.11800
C101        C  0.40373038  0.37854702  0.34970531     0.02900
C102        C  0.40355716  0.35572903  0.37438818    -0.11200
H103        H  0.33747545  0.37967782  0.41469701     0.08500
H104        H  0.37959422  0.41958030  0.33023134     0.06000
H105        H  0.42197077  0.33772751  0.37510215     0.05900
C106        C  0.47899306  0.40021301  0.30340986     0.02900
C107        C  0.48234736  0.37297750  0.28520046    -0.13300
C108        C  0.45774363  0.35077460  0.28190216     0.00400
C109        C  0.43195164  0.35258333  0.30336997    -0.11800
C110        C  0.42950355  0.37806044  0.32515178     0.02900
C111        C  0.45226041  0.40272371  0.32368685    -0.11200
H112        H  0.00484387  0.36948013  0.27424572     0.08500
H113        H  0.41431836  0.33381496  0.30373767     0.06000
H114        H  0.44918832  0.42372494  0.33827509     0.05900
C115        C  0.40544792  0.30312159  0.46793114     0.02900
C116        C  0.38104775  0.28074874  0.46682210    -0.13300
C117        C  0.35371795  0.28515864  0.44922439     0.00400
C118        C  0.35261501  0.31087155  0.42758079    -0.11800
C119        C  0.37929699  0.33109673  0.42371888     0.02900
C120        C  0.40540807  0.32749175  0.44473689    -0.11200
H121        H  0.38279948  0.25906690  0.47944630     0.09300
H122        H  0.33135635  0.31489848  0.41361918     0.06000
H123        H  0.42569089  0.34322895  0.44272492     0.05900
C124        C  0.14886324  0.09961609  0.37239052     0.02900
C125        C  0.12418640  0.09928220  0.34968167    -0.13300
C126        C  0.09945979  0.12200531  0.35082174     0.00400
C127        C  0.09964081  0.14524489  0.37499544    -0.11800
C128        C  0.12412987  0.14611766  0.39781966     0.02900
C129        C  0.14855089  0.12318280  0.39625915    -0.11200
H130        H  0.12419968  0.08137958  0.33115778     0.08500
H131        H  0.08079711  0.16278692  0.37590278     0.06000
H132        H  0.16736349  0.12355537  0.41386590     0.05900
C133        C  0.15231050  0.21186359  0.45383449     0.02900
C134        C  0.12926932  0.20871973  0.47764268    -0.13300
C135        C  0.10097404  0.19268413  0.47246633     0.00400
C136        C  0.09849995  0.17319019  0.44515291    -0.11800
C137        C  0.12429016  0.17052773  0.42370842     0.02900
C138        C  0.15066984  0.19100907  0.42762113    -0.11200
H139        H  0.13289064  0.21833808  0.50081204     0.08500
H140        H  0.07684926  0.15994572  0.44080429     0.06000
H141        H  0.17010673  0.19018683  0.41074600     0.05900
C142        C  0.20507344  0.03377672  0.39954167     0.02900
C143        C  0.17877438  0.05448556  0.39800903    -0.13300
C144        C  0.17492812  0.07534062  0.37197136     0.00400
C145        C  0.19685384  0.07346443  0.34647765    -0.11800
C146        C  0.22421462  0.05385449  0.34883974     0.02900
C147        C  0.22889766  0.03691115  0.37662034    -0.11200
H148        H  0.16184958  0.05503543  0.41741874     0.08500
H149        H  0.19275165  0.08725746  0.32512202     0.06000
H150        H  0.25170799  0.02638519  0.37989824     0.05900
C151        C  0.04928371  0.14649708  0.27936811     0.02900
C152        C  0.07177650  0.14736811  0.30423418    -0.13300
C153        C  0.07389679  0.12208988  0.32621573     0.00400
C154        C  0.05136052  0.09719099  0.32462300    -0.11800
C155        C  0.02761037  0.09707431  0.30082904     0.02900
C156        C  0.02890676  0.12070978  0.27750058    -0.11200
H157        H  0.08752005  0.16762421  0.30653552     0.08500
H158        H  0.05268476  0.07774298  0.34145938     0.06000
H159        H  0.01448406  0.11947080  0.25698040     0.05900
O160        O  0.21150626  0.02919882  0.45373856    -0.80400
O161        O  0.20667585  0.47860888  0.04449577    -0.80400
O162        O  0.20744438  0.45701614  0.47412976    -0.80400
O163        O  0.21116482  0.04901472  0.02404092    -0.80300
O164        O  0.22493074  0.42949997  0.01233751    -0.80500
O165        O  0.23314789  0.07537672  0.48713661    -0.80400
O166        O  0.22778546  0.01498466  0.07211315    -0.80400
O167        O  0.22873628  0.48967986  0.42752700    -0.80400
C168        C  0.21222681  0.01494728  0.42834684     1.09300
C169        C  0.20825082  0.99187931  0.07037614     1.09200
C170        C  0.20802858  0.43111348  0.98735848     1.09300
C171        C  0.21384741  0.07465177  0.01042667     1.09200
O172        O  0.29947687  0.04468066  0.47646929    -0.80400
O173        O  0.29324977  0.45330254  0.02606932    -0.80500
O174        O  0.29556774  0.47441999  0.45393721    -0.80400
O175        O  0.29683892  0.02261482  0.04559274    -0.80400
O176        O  0.27473436  0.48687874  0.07309982    -0.80400
O177        O  0.27818525  0.01379501  0.42771503    -0.80400
O178        O  0.28078833  0.07224221  0.01428658    -0.80300
O179        O  0.27380122  0.42754319  0.48753545    -0.80400
Co180      Co  0.25543083  0.03710036  0.46489883     1.51500
Co181      Co  0.24999066  0.46565103  0.03548724     1.51700
Co182      Co  0.25157815  0.46551717  0.46418567     1.51600
Co183      Co  0.25396346  0.03612678  0.03539012     1.51500
O184        O  0.25260949  0.50097130  0.99976616    -1.42300
C185        C  0.29977273  0.07010559  0.99078175     1.09200
C186        C  0.29075228  0.42768312  0.01254962     1.09300
C187        C  0.29460158  0.48850507  0.42839932     1.09300
C188        C  0.29467097  0.50962065  0.07150853     1.09200
C189        C  0.14725130  0.37712749  0.39846919     0.02900
C190        C  0.12401473  0.35306706  0.39686684    -0.13300
C191        C  0.10094172  0.35277504  0.37251990     0.00400
C192        C  0.10141996  0.37712881  0.34940430    -0.11800
C193        C  0.12454939  0.40151543  0.35051648     0.02900
C194        C  0.14727321  0.40125814  0.37516597    -0.11200
H195        H  0.12393415  0.33439308  0.41462490     0.08500
H196        H  0.08386129  0.37708851  0.33055459     0.06000
H197        H  0.16522745  0.41971659  0.37601942     0.05900
C198        C  0.20085234  0.40284015  0.46738763     0.02900
C199        C  0.22365943  0.37879771  0.46548025    -0.13300
C200        C  0.21892458  0.35134576  0.44798630     0.00400
C201        C  0.19274760  0.35011903  0.42698569    -0.11800
C202        C  0.17219968  0.37657334  0.42381651     0.02900
C203        C  0.17589709  0.40254516  0.44490824    -0.11200
H204        H  0.24581739  0.38093239  0.47731981     0.08500
H205        H  0.18860592  0.32892173  0.41296180     0.06000
H206        H  0.15980718  0.42259781  0.44342658     0.05900
C207        C  0.10044405  0.47265125  0.29903656     0.02900
C208        C  0.10048776  0.44945721  0.32337693    -0.13300
C209        C  0.12531899  0.42693235  0.32561383     0.00400
C210        C  0.15098925  0.42901203  0.30400322    -0.11800
C211        C  0.15017234  0.45096638  0.27854558     0.02900
C212        C  0.12393873  0.47065270  0.27562657    -0.11200
H213        H  0.08091320  0.44845289  0.34008476     0.08500
H214        H  0.17141759  0.41361532  0.30696564     0.06000
H215        H  0.12222323  0.48392826  0.25428726     0.05900
C216        C  0.05573610  0.27718269  0.34885465     0.02900
C217        C  0.07518506  0.30464929  0.34653055    -0.13300
C218        C  0.07658337  0.32680392  0.37184918     0.00400
C219        C  0.05543529  0.32305849  0.39765482    -0.11800
C220        C  0.03489960  0.29662684  0.39921191     0.02900
C221        C  0.03844439  0.27260784  0.37650806    -0.11200
H222        H  0.08930274  0.30861128  0.32536468     0.08500
H223        H  0.05567450  0.34015002  0.41692787     0.06000
H224        H  0.02807025  0.24972542  0.37993290     0.05900
C225        C  0.37353152  0.15273637  0.10036559     0.02900
C226        C  0.39684741  0.15268388  0.12459144    -0.13300
C227        C  0.39783146  0.12830319  0.14759786     0.00400
C228        C  0.37490346  0.10388396  0.14613162    -0.11800
C229        C  0.35125426  0.10352564  0.12234802     0.02900
C230        C  0.35081770  0.12804299  0.09945961    -0.11200
H231        H  0.41426383  0.17164479  0.12549087     0.08500
H232        H  0.37522446  0.08518584  0.16386475     0.06000
H233        H  0.33274097  0.12802066  0.08110497     0.05900
C234        C  0.46241145  0.10011687  0.20515493     0.02900
C235        C  0.45832386  0.12284279  0.22907079    -0.13300
C236        C  0.44310373  0.15143904  0.22324530     0.00400
C237        C  0.42442255  0.15412299  0.19531656    -0.11800
C238        C  0.42202840  0.12831179  0.17382251     0.02900
C239        C  0.44234534  0.10186413  0.17829537    -0.11200
H240        H  0.96675511  0.11878177  0.25269429     0.08500
H241        H  0.41160909  0.17594032  0.19053930     0.06000
H242        H  0.44195037  0.08244031  0.16138836     0.05900
C243        C  0.39991850  0.20746424  0.03292651     0.02900
C244        C  0.37817545  0.23235746  0.03731229    -0.13300
C245        C  0.35095454  0.22869995  0.05559857     0.00400
C246        C  0.34861084  0.20160963  0.07546469    -0.11800
C247        C  0.37324402  0.17875873  0.07615064     0.02900
C248        C  0.39818937  0.18129247  0.05385877    -0.11200
H249        H  0.38203012  0.25525106  0.02718035     0.08500
H250        H  0.32781455  0.19834058  0.09029635     0.06000
H251        H  0.41674014  0.16342610  0.05350060     0.05900
C252        C  0.28420003  0.04902786  0.14995867     0.02900
C253        C  0.30571579  0.07466490  0.14835733    -0.13300
C254        C  0.32674328  0.07775617  0.12235116     0.00400
C255        C  0.32473680  0.05549959  0.09719272    -0.11800
C256        C  0.30436509  0.02876167  0.09961001     0.02900
C257        C  0.28651833  0.02515120  0.12697134    -0.11200
H258        H  0.30665131  0.09173063  0.16762860     0.08500
H259        H  0.33899481  0.05890371  0.07602138     0.06000
H260        H  0.27473104  0.50301708  0.12986085     0.05900
O261        O  0.45946106  0.29551626  0.47433642    -0.80400
O262        O  0.05007328  0.29136878  0.02501245    -0.80400
O263        O  0.48117285  0.29506433  0.04547587    -0.80400
O264        O  0.02963159  0.29094476  0.45350816    -0.80300
O265        O  0.01673602  0.27290446  0.07315704    -0.80500
O266        O  0.49063397  0.27312286  0.42716801    -0.80400
O267        O  0.07604208  0.27053628  0.48704451    -0.80400
O268        O  0.43189578  0.27861597  0.01280074    -0.80400
C269        C  0.43370698  0.29557033  0.48781610     1.09300
C270        C  0.07536991  0.28957860  0.51060986     1.09200
C271        C  0.99383708  0.29263340  0.07158605     1.09300
C272        C  0.01577592  0.28975255  0.42792842     1.09200
O273        O  0.47465256  0.20691551  0.45448421    -0.80400
O274        O  0.02503806  0.20489465  0.04499732    -0.80500
O275        O  0.45425419  0.20932021  0.02553349    -0.80400
O276        O  0.04700337  0.20334690  0.47653383    -0.80400
O277        O  0.07457099  0.22264896  0.01404678    -0.80400
O278        O  0.42829004  0.22994361  0.48791632    -0.80400
O279        O  0.01447806  0.22358295  0.42830893    -0.80300
O280        O  0.48849235  0.22601505  0.07241263    -0.80400
Co281      Co  0.46675272  0.25113965  0.46448932     1.51500
Co282      Co  0.03786680  0.24815020  0.03554277     1.51700
Co283      Co  0.46739764  0.25218282  0.03565049     1.51600
Co284      Co  0.03830368  0.24718103  0.46483812     1.51500
O285        O  0.00250812  0.24957201  0.49991543    -1.42300
C286        C  0.98896685  0.20739660  0.42907134     1.09200
C287        C  0.01139091  0.20623047  0.07065529     1.09300
C288        C  0.42841465  0.21272617  0.01269182     1.09300
C289        C  0.07261989  0.20366692  0.99054813     1.09200
C290        C  0.10209814  0.03774133  0.20356419     0.02900
C291        C  0.10377104  0.05832804  0.17715854    -0.13300
C292        C  0.13012210  0.07880184  0.17313440     0.00400
C293        C  0.15591169  0.07628307  0.19460879    -0.11800
C294        C  0.15339234  0.05702069  0.22209977     0.02900
C295        C  0.12504493  0.04114933  0.22742286    -0.11200
H296        H  0.08435314  0.05899417  0.16024980     0.08500
H297        H  0.17757419  0.08947503  0.19016205     0.06000
H298        H  0.12134071  0.03179889  0.25069904     0.05900
C299        C  0.13012800  0.10319227  0.14723597     0.02900
C300        C  0.15455631  0.10420056  0.12436446    -0.13300
C301        C  0.15462553  0.12753483  0.10027606     0.00400
C302        C  0.12983290  0.15019782  0.09926475    -0.11800
C303        C  0.10521757  0.14972679  0.12204295     0.02900
C304        C  0.10563568  0.12605600  0.14579955    -0.11200
H305        H  0.17346521  0.08672370  0.12519818     0.08500
H306        H  0.12975072  0.16818917  0.08082521     0.06000
H307        H  0.08687693  0.12558188  0.16345799     0.05900
C308        C  0.02989153  0.19570973  0.09888706     0.02900
C309        C  0.05718010  0.17602938  0.09640915    -0.13300
C310        C  0.07914505  0.17400102  0.12185054     0.00400
C311        C  0.07538645  0.19476350  0.14798958    -0.11800
C312        C  0.04917130  0.21559155  0.14960249     0.02900
C313        C  0.02530398  0.21258001  0.12671556    -0.11200
H314        H  0.06121862  0.16232798  0.07498458     0.08500
H315        H  0.09234884  0.19410535  0.16736467     0.06000
H316        H  0.00255021  0.22320509  0.13002114     0.05900
C317        C  0.22680921  0.15265036  0.05083016     0.02900
C318        C  0.20282676  0.15251098  0.07439624    -0.13300
C319        C  0.18022290  0.12765155  0.07571009     0.00400
C320        C  0.18242242  0.10249006  0.05361712    -0.11800
C321        C  0.20517980  0.10334701  0.02900684     0.02900
C322        C  0.22575558  0.12900857  0.02749672    -0.11200
H323        H  0.20140378  0.17189316  0.09129656     0.08500
H324        H  0.16658625  0.08228109  0.05568996     0.06000
H325        H  0.24054711  0.13015036  0.50724753     0.05900
C326        C  0.40289650  0.14647356  0.37214051     0.02900
C327        C  0.40342982  0.12200181  0.34919884    -0.13300
C328        C  0.38070522  0.09730650  0.34993893     0.00400
C329        C  0.35725385  0.09733000  0.37403831    -0.11800
C330        C  0.35616813  0.12166397  0.39709030     0.02900
C331        C  0.37911543  0.14607652  0.39578529    -0.11200
H332        H  0.42159858  0.12205456  0.33093913     0.08500
H333        H  0.33984036  0.07836142  0.37483003     0.06000
H334        H  0.37873047  0.16472225  0.41356794     0.05900
C335        C  0.44999945  0.22120674  0.34967650     0.02900
C336        C  0.46781240  0.22475090  0.37708411    -0.13300
C337        C  0.46996134  0.20087894  0.40011141     0.00400
C338        C  0.44835732  0.17530205  0.39843574    -0.11800
C339        C  0.42742777  0.17224523  0.37232753     0.02900
C340        C  0.42956614  0.19452094  0.34719698    -0.11200
H341        H  0.47972062  0.24681818  0.37998025     0.08500
H342        H  0.44731402  0.15823024  0.41769870     0.06000
H343        H  0.41536560  0.19116135  0.32597764     0.05900
C344        C  0.31132234  0.09837912  0.47291277     0.02900
C345        C  0.32972039  0.09568854  0.44479809    -0.13300
C346        C  0.33198228  0.12153589  0.42332810     0.00400
C347        C  0.31171230  0.14799044  0.42799673    -0.11800
C348        C  0.29194336  0.14974351  0.45507442     0.02900
C349        C  0.29630537  0.12703197  0.47895468    -0.11200
H350        H  0.34245523  0.07385765  0.43988238     0.08500
H351        H  0.31197456  0.16744072  0.41111454     0.06000
H352        H  0.28823753  0.13115637  0.50270585     0.05900
C353        C  0.35444726  0.04260193  0.28246961     0.02900
C354        C  0.35618340  0.06878229  0.30336881    -0.13300
C355        C  0.38110324  0.07131565  0.32568226     0.00400
C356        C  0.40574542  0.04845489  0.32502640    -0.11800
C357        C  0.40342638  0.02135053  0.30516300     0.02900
C358        C  0.37621676  0.01771334  0.28684739    -0.11200
H359        H  0.33762486  0.08664237  0.30299745     0.08500
H360        H  0.42651318  0.05171117  0.33990228     0.06000
H361        H  0.37237884  0.49481163  0.27672367     0.05900
C362        C  0.35086216  0.37122848  0.09978782     0.02900
C363        C  0.37507763  0.34799577  0.09904753    -0.13300
C364        C  0.39910894  0.34752198  0.12247719     0.00400
C365        C  0.39873410  0.37066030  0.14675523    -0.11800
C366        C  0.37483189  0.39405150  0.14806056     0.02900
C367        C  0.35098371  0.39408192  0.12442501    -0.11200
H368        H  0.37514002  0.33025065  0.08037342     0.08500
H369        H  0.41717575  0.37043675  0.16475194     0.06000
H370        H  0.33250683  0.41201923  0.12512678     0.05900
C371        C  0.34902671  0.44694760  0.21775226     0.02900
C372        C  0.34911469  0.42248398  0.19466817    -0.13300
C373        C  0.37521045  0.41888713  0.17364320     0.00400
C374        C  0.40183682  0.43918241  0.17740008    -0.11800
C375        C  0.40068800  0.46495747  0.19894076     0.02900
C376        C  0.37335037  0.46939749  0.21650549    -0.11200
H377        H  0.32887798  0.40667772  0.19273678     0.08500
H378        H  0.42309544  0.43515256  0.16344319     0.06000
H379        H  0.37153924  0.49116952  0.22898067     0.05900
C380        C  0.45351626  0.28031093  0.14961325     0.02900
C381        C  0.47765786  0.28314897  0.12688743    -0.13300
C382        C  0.47417433  0.30140410  0.09969118     0.00400
C383        C  0.44728960  0.32154077  0.09731139    -0.11800
C384        C  0.42474429  0.32293521  0.12222731     0.02900
C385        C  0.42768252  0.30155488  0.14794296    -0.11200
H386        H  0.99991739  0.27157960  0.12992305     0.08500
H387        H  0.44404686  0.33618935  0.07637977     0.06000
H388        H  0.41038590  0.30209095  0.16702414     0.05900
C389        C  0.27530171  0.34949318  0.05396587     0.02900
C390        C  0.27177251  0.37680157  0.03588020    -0.13300
C391        C  0.29643898  0.39890015  0.03226554     0.00400
C392        C  0.32242722  0.39704438  0.05349595    -0.11800
C393        C  0.32500454  0.37160188  0.07530655     0.02900
C394        C  0.30221185  0.34695573  0.07402845    -0.11200
H395        H  0.24910904  0.38042121  0.02524539     0.08500
H396        H  0.34010290  0.41577602  0.05368576     0.06000
H397        H  0.30539150  0.32595152  0.08859417     0.05900
C398        C  0.10738397  0.37274023  0.14844519     0.02900
C399        C  0.13058300  0.39683107  0.14674890    -0.13300
C400        C  0.15356803  0.39714340  0.12231755     0.00400
C401        C  0.15305341  0.37278692  0.09922587    -0.11800
C402        C  0.12998524  0.34835935  0.10044714     0.02900
C403        C  0.10734803  0.34858073  0.12517419    -0.11200
H404        H  0.13068765  0.41552459  0.16448186     0.08500
H405        H  0.17054611  0.37284744  0.08031808     0.06000
H406        H  0.08942059  0.33009870  0.12608523     0.05900
C407        C  0.21960587  0.45321561  0.14896614     0.02900
C408        C  0.21605278  0.47726987  0.12628928    -0.13300
C409        C  0.19874865  0.47275123  0.09863744     0.00400
C410        C  0.17932448  0.44526475  0.09627223    -0.11800
C411        C  0.17793165  0.42309065  0.12158711     0.02900
C412        C  0.19908661  0.42679404  0.14738024    -0.11200
H413        H  0.22639874  0.50015572  0.12973627     0.08500
H414        H  0.16519389  0.44132690  0.07510886     0.06000
H415        H  0.19885026  0.40968160  0.16663948     0.05900
C416        C  0.05338246  0.34709519  0.21708491     0.02900
C417        C  0.07856531  0.34743301  0.19486246    -0.13300
C418        C  0.08238103  0.37336940  0.17374161     0.00400
C419        C  0.06179583  0.39981449  0.17673833    -0.11800
C420        C  0.03541902  0.39855970  0.19748760     0.02900
C421        C  0.03048153  0.37103961  0.21484229    -0.11200
H422        H  0.09470946  0.32741222  0.19356071     0.08500
H423        H  0.06604663  0.42101662  0.16275146     0.06000
H424        H  0.00813236  0.36878802  0.22629733     0.05900
C425        C  0.15403441  0.27723712  0.04897454     0.02900
C426        C  0.15397659  0.30038503  0.07335057    -0.13300
C427        C  0.12919021  0.32295790  0.07554996     0.00400
C428        C  0.10353351  0.32092063  0.05392284    -0.11800
C429        C  0.10435520  0.29898696  0.02845397     0.02900
C430        C  0.13064311  0.27939229  0.02546238    -0.11200
H431        H  0.17349793  0.30130543  0.09012897     0.08500
H432        H  0.08308819  0.33628725  0.05691779     0.06000
H433        H  0.13238306  0.26622110  0.50406802     0.05900
O434        O  0.48438994  0.45416842  0.29520818    -0.80400
O435        O  0.02026080  0.04287256  0.29616886    -0.80400
O436        O  0.04635395  0.47977922  0.29433529    -0.80400
O437        O  0.45756698  0.01579792  0.29713187    -0.80300
O438        O  0.07279964  0.01769017  0.27585279    -0.80500
O439        O  0.43061013  0.47891098  0.27704776    -0.80400
O440        O  0.48237503  0.06958717  0.27805352    -0.80400
O441        O  0.02116956  0.42730821  0.27477012    -0.80400
C442        C  0.49800674  0.42850283  0.29408961     1.09300
C443        C  0.50712622  0.06875372  0.29517554     1.09200
C444        C  0.07214662  0.99297859  0.29305124     1.09300
C445        C  0.43185143  0.00217940  0.29624254     1.09200
O446        O  0.45478219  0.46791445  0.20889989    -0.80400
O447        O  0.04765027  0.03202385  0.20900524    -0.80500
O448        O  0.03254438  0.45281115  0.20729460    -0.80400
O449        O  0.46824784  0.04577693  0.21065926    -0.80400
O450        O  0.00702256  0.07267541  0.22911004    -0.80400
O451        O  0.49415322  0.42578847  0.22688885    -0.80400
O452        O  0.42773247  0.00583229  0.22920533    -0.80300
O453        O  0.07464854  0.49295665  0.22689715    -0.80400
Co454      Co  0.46945383  0.46068537  0.25194271     1.51500
Co455      Co  0.03372229  0.03766585  0.25237493     1.51700
Co456      Co  0.03987327  0.46652813  0.25066146     1.51600
Co457      Co  0.46284658  0.03084709  0.25370063     1.51500
O458        O  0.00155590  0.99911350  0.24797895    -1.42300
C459        C  0.42936763  0.98224214  0.21013878     1.09200
C460        C  0.07342262  0.01839085  0.21048320     1.09300
C461        C  0.01804948  0.42739173  0.20822938     1.09300
C462        C  0.98175786  0.07152616  0.21242307     1.09200
O463        O  0.29500708  0.45442573  0.72415878    -0.80400
O464        O  0.20447192  0.45830919  0.77471923    -0.80400
O465        O  0.27342070  0.45492308  0.79522045    -0.80400
O466        O  0.22486085  0.45874790  0.70328555    -0.80300
O467        O  0.23777558  0.47686959  0.82293654    -0.80500
O468        O  0.26380763  0.47670416  0.67696188    -0.80400
O469        O  0.17835883  0.47911419  0.73685120    -0.80400
O470        O  0.32255839  0.47149418  0.76256341    -0.80400
C471        C  0.32076986  0.45447590  0.73762603     1.09300
C472        C  0.17909474  0.46013667  0.76046704     1.09200
C473        C  0.26079155  0.45727530  0.82134243     1.09300
C474        C  0.23871024  0.46002197  0.67770151     1.09200
O475        O  0.27949914  0.04296170  0.70428768    -0.80400
O476        O  0.22906870  0.04485914  0.79490265    -0.80500
O477        O  0.30007695  0.04072823  0.77520581    -0.80400
O478        O  0.20732933  0.04632194  0.72621260    -0.80400
O479        O  0.17976761  0.02703899  0.76372824    -0.80400
O480        O  0.32600700  0.02010294  0.73755367    -0.80400
O481        O  0.23977281  0.02614223  0.67807160    -0.80300
O482        O  0.26580616  0.02390886  0.82220723    -0.80400
Co483      Co  0.28756906  0.99877199  0.71427348     1.51500
Co484      Co  0.21647631  0.50156571  0.78533883     1.51700
Co485      Co  0.28701488  0.49785031  0.78540399     1.51600
Co486      Co  0.21605888  0.00249346  0.71459836     1.51500
O487        O  0.25184773  0.50029330  0.74971035    -1.42300
C488        C  0.26520180  0.04243760  0.67886984     1.09200
C489        C  0.24275880  0.04353702  0.82054210     1.09300
C490        C  0.32590311  0.03733446  0.76230894     1.09300
C491        C  0.18172155  0.04601443  0.74021351     1.09200
O492        O  0.46098471  0.29636878  0.77580445    -0.80400
O493        O  0.45496402  0.20513283  0.72675707    -0.80400
O494        O  0.45869235  0.27496357  0.70406804    -0.80400
O495        O  0.45761734  0.22734017  0.79566572    -0.80300
O496        O  0.47619614  0.23577660  0.67776654    -0.80500
O497        O  0.47964001  0.26312253  0.82315401    -0.80400
O498        O  0.47370463  0.17759980  0.76456562    -0.80400
O499        O  0.48036340  0.32210580  0.73723062    -0.80400
C500        C  0.46340203  0.32197000  0.76222864     1.09300
C501        C  0.45468226  0.17971690  0.74108764     1.09200
C502        C  0.45974628  0.26104306  0.67846228     1.09300
C503        C  0.45974184  0.24034699  0.82157741     1.09200
O504        O  0.04763342  0.27162505  0.79470521    -0.80400
O505        O  0.04292548  0.22035550  0.70382097    -0.80500
O506        O  0.04679583  0.29291605  0.72384622    -0.80400
O507        O  0.04331813  0.20084549  0.77436349    -0.80400
O508        O  0.02134790  0.17444501  0.73746165    -0.80400
O509        O  0.02924165  0.32042828  0.76205130    -0.80400
O510        O  0.02664475  0.23505905  0.82223711    -0.80300
O511        O  0.02563839  0.25980193  0.67754346    -0.80400
Co512      Co  0.00429286  0.28431134  0.78543627     1.51500
Co513      Co  0.49900003  0.21260181  0.71507705     1.51700
Co514      Co  0.50269795  0.28410677  0.71408257     1.51600
Co515      Co  0.00050446  0.21378904  0.78557852     1.51500
O516        O  0.00194146  0.24882962  0.74984371    -1.42300
C517        C  0.04612396  0.25821723  0.82053493     1.09200
C518        C  0.04214490  0.23452460  0.67839021     1.09300
C519        C  0.04613898  0.31882603  0.73705868     1.09300
C520        C  0.04063681  0.17519782  0.76077190     1.09200
O521        O  0.20679123  0.21757778  0.95924347    -0.80400
O522        O  0.29962994  0.28225988  0.95931966    -0.80400
O523        O  0.22186446  0.29708947  0.95770918    -0.80400
O524        O  0.28624708  0.20406481  0.96090115    -0.80300
O525        O  0.26014530  0.32415073  0.97746877    -0.80500
O526        O  0.24747402  0.17711533  0.97933776    -0.80400
O527        O  0.32665983  0.24421274  0.97945519    -0.80400
O528        O  0.17985639  0.25671558  0.97704170    -0.80400
C529        C  0.18103328  0.23123359  0.96068677     1.09300
C530        C  0.32502487  0.26788560  0.96046838     1.09200
C531        C  0.23629945  0.32253607  0.95874810     1.09300
C532        C  0.27269509  0.17832484  0.96258750     1.09200
O533        O  0.23420176  0.20688145  0.54643317    -0.80400
O534        O  0.26995881  0.29552578  0.54568815    -0.80500
O535        O  0.20810233  0.26972936  0.54462122    -0.80400
O536        O  0.29684479  0.23408645  0.54737467    -0.80400
O537        O  0.32378190  0.27103748  0.52738474    -0.80400
O538        O  0.18155462  0.23200098  0.52600402    -0.80400
O539        O  0.27211527  0.18023546  0.52827701    -0.80300
O540        O  0.23312710  0.32236031  0.52532166    -0.80400
Co541      Co  0.22072613  0.21206074  0.50262736     1.51500
Co542      Co  0.28489551  0.28921526  0.00238287     1.51700
Co543      Co  0.21453392  0.28317681  0.00100435     1.51600
Co544      Co  0.29162434  0.21902639  0.50394163     1.51500
O545        O  0.25287697  0.25068523  0.99822208    -1.42300
C546        C  0.24733894  0.18099991  0.54537444     1.09200
C547        C  0.25630219  0.32117399  0.54463845     1.09300
C548        C  0.18223631  0.25670741  0.54319368     1.09300
C549        C  0.32252921  0.24777202  0.54656970     1.09200
C550        C  0.30100438  0.46945675  0.89948629     0.02900
C551        C  0.27691634  0.46663556  0.87670110    -0.13300
C552        C  0.28054556  0.44855674  0.84941764     0.00400
C553        C  0.30754205  0.42855830  0.84700706    -0.11800
C554        C  0.32999850  0.42708469  0.87201545     0.02900
C555        C  0.32692560  0.44834151  0.89779933    -0.11200
H556        H  0.25456193  0.47802363  0.87980706     0.08500
H557        H  0.31088782  0.41400952  0.82602598     0.06000
H558        H  0.34415165  0.44776492  0.91694676     0.05900
C559        C  0.37972839  0.35587857  0.89804924     0.02900
C560        C  0.35590945  0.37936033  0.89669878    -0.13300
C561        C  0.35559367  0.40245675  0.87236325     0.00400
C562        C  0.37961042  0.40186916  0.84894179    -0.11800
C563        C  0.40373026  0.37854710  0.84970530     0.02900
C564        C  0.40355701  0.35572907  0.87438812    -0.11200
H565        H  0.33747499  0.37967801  0.91469716     0.08500
H566        H  0.37959389  0.41958003  0.83023110     0.06000
H567        H  0.42197054  0.33772790  0.87510213     0.05900
C568        C  0.47899298  0.40021312  0.80340997     0.02900
C569        C  0.48234728  0.37297754  0.78520057    -0.13300
C570        C  0.45774352  0.35077453  0.78190221     0.00400
C571        C  0.43195162  0.35258330  0.80337005    -0.11800
C572        C  0.42950347  0.37806047  0.82515184     0.02900
C573        C  0.45226033  0.40272380  0.82368686    -0.11200
H574        H  0.00484448  0.36947974  0.77424576     0.08500
H575        H  0.41431812  0.33381462  0.80373796     0.06000
H576        H  0.44918815  0.42372539  0.83827519     0.05900
C577        C  0.40544777  0.30312139  0.96793117     0.02900
C578        C  0.38104767  0.28074860  0.96682218    -0.13300
C579        C  0.35371791  0.28515856  0.94922439     0.00400
C580        C  0.35261491  0.31087150  0.92758074    -0.11800
C581        C  0.37929680  0.33109660  0.92371875     0.02900
C582        C  0.40540795  0.32749163  0.94473683    -0.11200
H583        H  0.38279944  0.25906670  0.97944620     0.09300
H584        H  0.33135620  0.31489844  0.91361918     0.06000
H585        H  0.42569042  0.34322833  0.94272478     0.05900
C586        C  0.14886331  0.09961617  0.87239068     0.02900
C587        C  0.12418637  0.09928223  0.84968179    -0.13300
C588        C  0.09945978  0.12200546  0.85082184     0.00400
C589        C  0.09964082  0.14524498  0.87499548    -0.11800
C590        C  0.12412989  0.14611777  0.89781975     0.02900
C591        C  0.14855096  0.12318290  0.89625919    -0.11200
H592        H  0.12419930  0.08137957  0.83115834     0.08500
H593        H  0.08079679  0.16278711  0.87590287     0.06000
H594        H  0.16736397  0.12355562  0.91386593     0.05900
C595        C  0.15231053  0.21186346  0.95383470     0.02900
C596        C  0.12926935  0.20871957  0.97764279    -0.13300
C597        C  0.10097405  0.19268407  0.97246640     0.00400
C598        C  0.09849996  0.17319019  0.94515288    -0.11800
C599        C  0.12429019  0.17052776  0.92370848     0.02900
C600        C  0.15066986  0.19100910  0.92762119    -0.11200
H601        H  0.13289088  0.21833775  0.00081258     0.08500
H602        H  0.07684921  0.15994578  0.94080407     0.06000
H603        H  0.17010673  0.19018688  0.91074614     0.05900
C604        C  0.20507372  0.03377683  0.89954169     0.02900
C605        C  0.17877448  0.05448556  0.89800903    -0.13300
C606        C  0.17492817  0.07534062  0.87197133     0.00400
C607        C  0.19685383  0.07346438  0.84647759    -0.11800
C608        C  0.22421475  0.05385452  0.84883969     0.02900
C609        C  0.22889781  0.03691124  0.87662031    -0.11200
H610        H  0.16184966  0.05503545  0.91741875     0.08500
H611        H  0.19275151  0.08725761  0.82512184     0.06000
H612        H  0.25170856  0.02638529  0.87989832     0.05900
C613        C  0.04928374  0.14649701  0.77936809     0.02900
C614        C  0.07177651  0.14736802  0.80423423    -0.13300
C615        C  0.07389675  0.12208971  0.82621585     0.00400
C616        C  0.05136065  0.09719086  0.82462293    -0.11800
C617        C  0.02761054  0.09707421  0.80082901     0.02900
C618        C  0.02890693  0.12070972  0.77750049    -0.11200
H619        H  0.08751984  0.16762377  0.80653554     0.08500
H620        H  0.05268500  0.07774247  0.84145932     0.06000
H621        H  0.01448407  0.11947095  0.75698056     0.05900
O622        O  0.21150624  0.02919876  0.95373854    -0.80400
O623        O  0.20667582  0.47860893  0.54449580    -0.80400
O624        O  0.20744437  0.45701621  0.97412982    -0.80400
O625        O  0.21116483  0.04901475  0.52404094    -0.80300
O626        O  0.22493072  0.42950005  0.51233745    -0.80500
O627        O  0.23314795  0.07537676  0.98713669    -0.80400
O628        O  0.22778545  0.01498453  0.57211326    -0.80400
O629        O  0.22873624  0.48967982  0.92752688    -0.80400
C630        C  0.21222704  0.01494740  0.92834678     1.09300
C631        C  0.20825092  0.99187911  0.57037623     1.09200
C632        C  0.20802856  0.43111347  0.48735843     1.09300
C633        C  0.21384739  0.07465178  0.51042660     1.09200
O634        O  0.29947685  0.04468063  0.97646938    -0.80400
O635        O  0.29324973  0.45330261  0.52606932    -0.80500
O636        O  0.29556768  0.47441998  0.95393713    -0.80400
O637        O  0.29683891  0.02261484  0.54559269    -0.80400
O638        O  0.27473420  0.48687870  0.57309987    -0.80400
O639        O  0.27818530  0.01379505  0.92771511    -0.80400
O640        O  0.28078828  0.07224219  0.51428657    -0.80300
O641        O  0.27380123  0.42754319  0.98753545    -0.80400
Co642      Co  0.25543085  0.03710035  0.96489889     1.51500
Co643      Co  0.24999060  0.46565107  0.53548725     1.51700
Co644      Co  0.25157812  0.46551717  0.96418565     1.51600
Co645      Co  0.25396342  0.03612677  0.53539014     1.51500
O646        O  0.25260954  0.50097132  0.49976615    -1.42300
C647        C  0.29977271  0.07010558  0.49078174     1.09200
C648        C  0.29075237  0.42768321  0.51254956     1.09300
C649        C  0.29460151  0.48850510  0.92839924     1.09300
C650        C  0.29467087  0.50962058  0.57150857     1.09200
C651        C  0.14725127  0.37712755  0.89846926     0.02900
C652        C  0.12401469  0.35306711  0.89686687    -0.13300
C653        C  0.10094167  0.35277500  0.87251996     0.00400
C654        C  0.10141995  0.37712874  0.84940438    -0.11800
C655        C  0.12454939  0.40151539  0.85051647     0.02900
C656        C  0.14727320  0.40125817  0.87516598    -0.11200
H657        H  0.12393402  0.33439314  0.91462501     0.08500
H658        H  0.08386138  0.37708818  0.83055459     0.06000
H659        H  0.16522755  0.41971652  0.87601925     0.05900
C660        C  0.20085229  0.40284009  0.96738778     0.02900
C661        C  0.22365940  0.37879769  0.96548028    -0.13300
C662        C  0.21892455  0.35134577  0.94798628     0.00400
C663        C  0.19274756  0.35011905  0.92698573    -0.11800
C664        C  0.17219966  0.37657334  0.92381659     0.02900
C665        C  0.17589708  0.40254515  0.94490836    -0.11200
H666        H  0.24581754  0.38093246  0.97731958     0.08500
H667        H  0.18860594  0.32892175  0.91296179     0.06000
H668        H  0.15980701  0.42259762  0.94342700     0.05900
C669        C  0.10044405  0.47265129  0.79903677     0.02900
C670        C  0.10048782  0.44945731  0.82337705    -0.13300
C671        C  0.12531894  0.42693232  0.82561384     0.00400
C672        C  0.15098927  0.42901196  0.80400329    -0.11800
C673        C  0.15017232  0.45096633  0.77854571     0.02900
C674        C  0.12393873  0.47065280  0.77562670    -0.11200
H675        H  0.08091317  0.44845295  0.84008491     0.08500
H676        H  0.17141744  0.41361516  0.80696561     0.06000
H677        H  0.12222336  0.48392825  0.75428807     0.05900
C678        C  0.05573601  0.27718257  0.84885460     0.02900
C679        C  0.07518506  0.30464913  0.84653043    -0.13300
C680        C  0.07658332  0.32680374  0.87184910     0.00400
C681        C  0.05543523  0.32305841  0.89765482    -0.11800
C682        C  0.03489952  0.29662666  0.89921182     0.02900
C683        C  0.03844433  0.27260772  0.87650800    -0.11200
H684        H  0.08930243  0.30861111  0.82536467     0.08500
H685        H  0.05567452  0.34014955  0.91692743     0.06000
H686        H  0.02807033  0.24972521  0.87993294     0.05900
C687        C  0.37353153  0.15273641  0.60036552     0.02900
C688        C  0.39684745  0.15268393  0.62459135    -0.13300
C689        C  0.39783159  0.12830325  0.64759772     0.00400
C690        C  0.37490358  0.10388401  0.64613148    -0.11800
C691        C  0.35125435  0.10352564  0.62234790     0.02900
C692        C  0.35081772  0.12804302  0.59945963    -0.11200
H693        H  0.41426422  0.17164486  0.62549064     0.08500
H694        H  0.37522465  0.08518580  0.66386456     0.06000
H695        H  0.33274064  0.12802070  0.58110498     0.05900
C696        C  0.46241158  0.10011684  0.70515483     0.02900
C697        C  0.45832402  0.12284280  0.72907072    -0.13300
C698        C  0.44310390  0.15143903  0.72324523     0.00400
C699        C  0.42442266  0.15412296  0.69531651    -0.11800
C700        C  0.42202855  0.12831176  0.67382238     0.02900
C701        C  0.44234546  0.10186411  0.67829526    -0.11200
H702        H  0.96675535  0.11878172  0.75269417     0.08500
H703        H  0.41160949  0.17594020  0.69053922     0.06000
H704        H  0.44195050  0.08244028  0.66138825     0.05900
C705        C  0.39991851  0.20746433  0.53292657     0.02900
C706        C  0.37817549  0.23235755  0.53731238    -0.13300
C707        C  0.35095457  0.22870000  0.55559859     0.00400
C708        C  0.34861082  0.20160971  0.57546466    -0.11800
C709        C  0.37324398  0.17875877  0.57615066     0.02900
C710        C  0.39818929  0.18129251  0.55385878    -0.11200
H711        H  0.38203034  0.25525149  0.52718060     0.08500
H712        H  0.32781413  0.19834063  0.59029598     0.06000
H713        H  0.41674003  0.16342582  0.55350047     0.05900
C714        C  0.28420020  0.04902773  0.64995857     0.02900
C715        C  0.30571590  0.07466476  0.64835727    -0.13300
C716        C  0.32674333  0.07775621  0.62235109     0.00400
C717        C  0.32473688  0.05549961  0.59719269    -0.11800
C718        C  0.30436523  0.02876163  0.59960989     0.02900
C719        C  0.28651852  0.02515104  0.62697122    -0.11200
H720        H  0.30665130  0.09173044  0.66762864     0.08500
H721        H  0.33899464  0.05890405  0.57602121     0.06000
H722        H  0.27473085  0.50301716  0.62986081     0.05900
O723        O  0.45946110  0.29551624  0.97433648    -0.80400
O724        O  0.05007333  0.29136882  0.52501250    -0.80400
O725        O  0.48117288  0.29506435  0.54547584    -0.80400
O726        O  0.02963153  0.29094473  0.95350819    -0.80300
O727        O  0.01673600  0.27290444  0.57315699    -0.80500
O728        O  0.49063396  0.27312284  0.92716801    -0.80400
O729        O  0.07604207  0.27053629  0.98704451    -0.80400
O730        O  0.43189583  0.27861598  0.51280068    -0.80400
C731        C  0.43370694  0.29557022  0.98781607     1.09300
C732        C  0.07536992  0.28957850  0.01060993     1.09200
C733        C  0.99383702  0.29263340  0.57158613     1.09300
C734        C  0.01577586  0.28975249  0.92792844     1.09200
O735        O  0.47465264  0.20691553  0.95448413    -0.80400
O736        O  0.02503802  0.20489465  0.54499725    -0.80500
O737        O  0.45425420  0.20932022  0.52553346    -0.80400
O738        O  0.04700333  0.20334684  0.97653388    -0.80400
O739        O  0.07457104  0.22264901  0.51404670    -0.80400
O740        O  0.42829012  0.22994354  0.98791628    -0.80400
O741        O  0.01447805  0.22358296  0.92830899    -0.80300
O742        O  0.48849239  0.22601501  0.57241250    -0.80400
Co743      Co  0.46675276  0.25113964  0.96448932     1.51500
Co744      Co  0.03786682  0.24815021  0.53554272     1.51700
Co745      Co  0.46739767  0.25218284  0.53565047     1.51600
Co746      Co  0.03830365  0.24718100  0.96483816     1.51500
O747        O  0.00250809  0.24957189  0.99991550    -1.42300
C748        C  0.98896687  0.20739656  0.92907131     1.09200
C749        C  0.01139091  0.20623048  0.57065524     1.09300
C750        C  0.42841462  0.21272625  0.51269188     1.09300
C751        C  0.07261990  0.20366690  0.49054812     1.09200
C752        C  0.10209819  0.03774133  0.70356412     0.02900
C753        C  0.10377111  0.05832807  0.67715850    -0.13300
C754        C  0.13012217  0.07880181  0.67313430     0.00400
C755        C  0.15591170  0.07628301  0.69460868    -0.11800
C756        C  0.15339241  0.05702064  0.72209966     0.02900
C757        C  0.12504500  0.04114935  0.72742278    -0.11200
H758        H  0.08435316  0.05899432  0.66024981     0.08500
H759        H  0.17757417  0.08947497  0.69016197     0.06000
H760        H  0.12134093  0.03179886  0.75069882     0.05900
C761        C  0.13012818  0.10319223  0.64723588     0.02900
C762        C  0.15455645  0.10420056  0.62436438    -0.13300
C763        C  0.15462566  0.12753484  0.60027605     0.00400
C764        C  0.12983295  0.15019780  0.59926479    -0.11800
C765        C  0.10521759  0.14972672  0.62204289     0.02900
C766        C  0.10563583  0.12605595  0.64579949    -0.11200
H767        H  0.17346573  0.08672375  0.62519819     0.08500
H768        H  0.12975048  0.16818911  0.58082512     0.06000
H769        H  0.08687705  0.12558169  0.66345794     0.05900
C770        C  0.02989155  0.19570976  0.59888703     0.02900
C771        C  0.05718017  0.17602941  0.59640921    -0.13300
C772        C  0.07914514  0.17400106  0.62185061     0.00400
C773        C  0.07538643  0.19476354  0.64798957    -0.11800
C774        C  0.04917126  0.21559159  0.64960249     0.02900
C775        C  0.02530397  0.21257991  0.62671552    -0.11200
H776        H  0.06121897  0.16232811  0.57498454     0.08500
H777        H  0.09234921  0.19410557  0.66736481     0.06000
H778        H  0.00254969  0.22320501  0.63002117     0.05900
C779        C  0.22680919  0.15265031  0.55083012     0.02900
C780        C  0.20282679  0.15251090  0.57439628    -0.13300
C781        C  0.18022290  0.12765156  0.57571001     0.00400
C782        C  0.18242249  0.10249009  0.55361700    -0.11800
C783        C  0.20517984  0.10334704  0.52900672     0.02900
C784        C  0.22575562  0.12900857  0.52749660    -0.11200
H785        H  0.20140383  0.17189302  0.59129668     0.08500
H786        H  0.16658623  0.08228118  0.55568959     0.06000
H787        H  0.24054721  0.13015028  0.00724772     0.05900
C788        C  0.40289648  0.14647375  0.87214055     0.02900
C789        C  0.40342992  0.12200195  0.84919889    -0.13300
C790        C  0.38070542  0.09730663  0.84993887     0.00400
C791        C  0.35725406  0.09733005  0.87403831    -0.11800
C792        C  0.35616823  0.12166414  0.89709033     0.02900
C793        C  0.37911545  0.14607663  0.89578527    -0.11200
H794        H  0.42159865  0.12205489  0.83093914     0.08500
H795        H  0.33984098  0.07836144  0.87483010     0.06000
H796        H  0.37873025  0.16472282  0.91356792     0.05900
C797        C  0.44999944  0.22120679  0.84967644     0.02900
C798        C  0.46781238  0.22475095  0.87708406    -0.13300
C799        C  0.46996134  0.20087897  0.90011134     0.00400
C800        C  0.44835732  0.17530212  0.89843570    -0.11800
C801        C  0.42742774  0.17224536  0.87232751     0.02900
C802        C  0.42956613  0.19452101  0.84719692    -0.11200
H803        H  0.47972057  0.24681822  0.87998020     0.08500
H804        H  0.44731402  0.15823029  0.91769865     0.06000
H805        H  0.41536558  0.19116139  0.82597759     0.05900
C806        C  0.31132240  0.09837908  0.97291269     0.02900
C807        C  0.32972041  0.09568849  0.94479801    -0.13300
C808        C  0.33198235  0.12153593  0.92332810     0.00400
C809        C  0.31171232  0.14799044  0.92799667    -0.11800
C810        C  0.29194337  0.14974353  0.95507431     0.02900
C811        C  0.29630536  0.12703193  0.97895457    -0.11200
H812        H  0.34245527  0.07385763  0.93988232     0.08500
H813        H  0.31197498  0.16744090  0.91111463     0.06000
H814        H  0.28823754  0.13115632  0.00270557     0.05900
C815        C  0.35444731  0.04260185  0.78246975     0.02900
C816        C  0.35618346  0.06878231  0.80336885    -0.13300
C817        C  0.38110346  0.07131572  0.82568215     0.00400
C818        C  0.40574558  0.04845490  0.82502633    -0.11800
C819        C  0.40342651  0.02135047  0.80516298     0.02900
C820        C  0.37621684  0.01771333  0.78684745    -0.11200
H821        H  0.33762497  0.08664207  0.80299765     0.08500
H822        H  0.42651348  0.05171146  0.83990192     0.06000
H823        H  0.37237884  0.49481166  0.77672357     0.05900
C824        C  0.35086222  0.37122842  0.59978780     0.02900
C825        C  0.37507759  0.34799574  0.59904757    -0.13300
C826        C  0.39910894  0.34752203  0.62247713     0.00400
C827        C  0.39873415  0.37066024  0.64675533    -0.11800
C828        C  0.37483198  0.39405145  0.64806059     0.02900
C829        C  0.35098379  0.39408185  0.62442502    -0.11200
H830        H  0.37514007  0.33025064  0.58037334     0.08500
H831        H  0.41717576  0.37043671  0.66475183     0.06000
H832        H  0.33250696  0.41201896  0.62512683     0.05900
C833        C  0.34902699  0.44694783  0.71775240     0.02900
C834        C  0.34911480  0.42248410  0.69466822    -0.13300
C835        C  0.37521071  0.41888721  0.67364323     0.00400
C836        C  0.40183699  0.43918241  0.67740011    -0.11800
C837        C  0.40068818  0.46495751  0.69894087     0.02900
C838        C  0.37335049  0.46939774  0.71650549    -0.11200
H839        H  0.32887871  0.40667827  0.69273705     0.08500
H840        H  0.42309569  0.43515234  0.66344336     0.06000
H841        H  0.37153933  0.49116991  0.72898051     0.05900
C842        C  0.45351622  0.28031092  0.64961318     0.02900
C843        C  0.47765787  0.28314903  0.62688737    -0.13300
C844        C  0.47417430  0.30140421  0.59969109     0.00400
C845        C  0.44728956  0.32154084  0.59731132    -0.11800
C846        C  0.42474420  0.32293524  0.62222719     0.02900
C847        C  0.42768254  0.30155489  0.64794291    -0.11200
H848        H  0.99991747  0.27157951  0.62992322     0.08500
H849        H  0.44404672  0.33618950  0.57637937     0.06000
H850        H  0.41038585  0.30209081  0.66702421     0.05900
C851        C  0.27530180  0.34949335  0.55396589     0.02900
C852        C  0.27177263  0.37680173  0.53588022    -0.13300
C853        C  0.29643917  0.39890040  0.53226565     0.00400
C854        C  0.32242735  0.39704444  0.55349599    -0.11800
C855        C  0.32500472  0.37160206  0.57530652     0.02900
C856        C  0.30221193  0.34695588  0.57402840    -0.11200
H857        H  0.24910916  0.38042164  0.52524583     0.08500
H858        H  0.34010354  0.41577649  0.55368584     0.06000
H859        H  0.30539142  0.32595172  0.58859407     0.05900
C860        C  0.10738404  0.37274050  0.64844529     0.02900
C861        C  0.13058308  0.39683122  0.64674896    -0.13300
C862        C  0.15356812  0.39714361  0.62231759     0.00400
C863        C  0.15305348  0.37278714  0.59922592    -0.11800
C864        C  0.12998541  0.34835958  0.60044709     0.02900
C865        C  0.10734810  0.34858098  0.62517420    -0.11200
H866        H  0.13068800  0.41552480  0.66448229     0.08500
H867        H  0.17054646  0.37284774  0.58031799     0.06000
H868        H  0.08942062  0.33009936  0.62608508     0.05900
C869        C  0.21960588  0.45321576  0.64896616     0.02900
C870        C  0.21605277  0.47726996  0.62628928    -0.13300
C871        C  0.19874867  0.47275139  0.59863747     0.00400
C872        C  0.17932454  0.44526488  0.59627225    -0.11800
C873        C  0.17793172  0.42309080  0.62158714     0.02900
C874        C  0.19908666  0.42679415  0.64738023    -0.11200
H875        H  0.22639889  0.50015614  0.62973635     0.08500
H876        H  0.16519396  0.44132696  0.57510889     0.06000
H877        H  0.19885031  0.40968168  0.66663946     0.05900
C878        C  0.05338253  0.34709531  0.71708492     0.02900
C879        C  0.07856539  0.34743302  0.69486244    -0.13300
C880        C  0.08238096  0.37336947  0.67374163     0.00400
C881        C  0.06179580  0.39981457  0.67673831    -0.11800
C882        C  0.03541908  0.39855978  0.69748770     0.02900
C883        C  0.03048155  0.37103968  0.71484229    -0.11200
H884        H  0.09470941  0.32741264  0.69356069     0.08500
H885        H  0.06604652  0.42101630  0.66275137     0.06000
H886        H  0.00813265  0.36878821  0.72629753     0.05900
C887        C  0.15403453  0.27723729  0.54897459     0.02900
C888        C  0.15397672  0.30038515  0.57335057    -0.13300
C889        C  0.12919041  0.32295798  0.57554998     0.00400
C890        C  0.10353356  0.32092065  0.55392291    -0.11800
C891        C  0.10435520  0.29898694  0.52845403     0.02900
C892        C  0.13064321  0.27939249  0.52546237    -0.11200
H893        H  0.17349858  0.30130595  0.59012886     0.08500
H894        H  0.08308813  0.33628674  0.55691834     0.06000
H895        H  0.13238290  0.26622076  0.00406802     0.05900
O896        O  0.48438992  0.45416847  0.79520837    -0.80400
O897        O  0.02026088  0.04287249  0.79616883    -0.80400
O898        O  0.04635399  0.47977922  0.79433524    -0.80400
O899        O  0.45756707  0.01579780  0.79713179    -0.80300
O900        O  0.07279965  0.01769009  0.77585278    -0.80500
O901        O  0.43061006  0.47891092  0.77704785    -0.80400
O902        O  0.48237514  0.06958704  0.77805335    -0.80400
O903        O  0.02116960  0.42730829  0.77477016    -0.80400
C904        C  0.49800672  0.42850289  0.79408962     1.09300
C905        C  0.50712628  0.06875365  0.79517545     1.09200
C906        C  0.07214670  0.99297848  0.79305121     1.09300
C907        C  0.43185152  0.00217927  0.79624251     1.09200
O908        O  0.45478219  0.46791441  0.70889999    -0.80400
O909        O  0.04765030  0.03202376  0.70900517    -0.80500
O910        O  0.03254436  0.45281118  0.70729461    -0.80400
O911        O  0.46824788  0.04577690  0.71065923    -0.80400
O912        O  0.00702267  0.07267550  0.72910998    -0.80400
O913        O  0.49415323  0.42578854  0.72688899    -0.80400
O914        O  0.42773258  0.00583223  0.72920522    -0.80300
O915        O  0.07464858  0.49295668  0.72689711    -0.80400
Co916      Co  0.46945381  0.46068538  0.75194285     1.51500
Co917      Co  0.03372233  0.03766579  0.75237487     1.51700
Co918      Co  0.03987329  0.46652817  0.75066145     1.51600
Co919      Co  0.46284662  0.03084702  0.75370054     1.51500
O920        O  0.00155596  0.99911343  0.74797891    -1.42300
C921        C  0.42936765  0.98224206  0.71013867     1.09200
C922        C  0.07342267  0.01839079  0.71048316     1.09300
C923        C  0.01804949  0.42739179  0.70822944     1.09300
C924        C  0.98175800  0.07152619  0.71242298     1.09200
O925        O  0.29500670  0.95442536  0.22415821    -0.80400
O926        O  0.20447146  0.95830843  0.27471857    -0.80400
O927        O  0.27342048  0.95492260  0.29522024    -0.80400
O928        O  0.22486024  0.95874776  0.20328494    -0.80300
O929        O  0.23777526  0.97686884  0.32293622    -0.80500
O930        O  0.26380712  0.97670408  0.17696153    -0.80400
O931        O  0.17835850  0.97911369  0.23685061    -0.80400
O932        O  0.32255780  0.97149369  0.26256311    -0.80400
C933        C  0.32076938  0.95447547  0.23762566     1.09300
C934        C  0.17909433  0.96013598  0.26046629     1.09200
C935        C  0.26079149  0.95727483  0.32134222     1.09300
C936        C  0.23870971  0.96002188  0.17770096     1.09200
O937        O  0.27949982  0.54296179  0.20428742    -0.80400
O938        O  0.22906950  0.54485974  0.29490278    -0.80500
O939        O  0.30007758  0.54072850  0.27520596    -0.80400
O940        O  0.20732944  0.54632233  0.22621256    -0.80400
O941        O  0.17976802  0.52703961  0.26372863    -0.80400
O942        O  0.32600734  0.52010323  0.23755360    -0.80400
O943        O  0.23977315  0.52614233  0.17807164    -0.80300
O944        O  0.26580685  0.52390928  0.32220749    -0.80400
Co945      Co  0.28756949  0.49877216  0.21427364     1.51500
Co946      Co  0.21647572  0.00156492  0.28533855     1.51700
Co947      Co  0.28701435  0.99784991  0.28540376     1.51600
Co948      Co  0.21605924  0.50249380  0.21459863     1.51500
O949        O  0.25184721  0.00029269  0.24971015    -1.42300
C950        C  0.26520233  0.54243749  0.17886962     1.09200
C951        C  0.24275963  0.54353762  0.32054226     1.09300
C952        C  0.32590362  0.53733466  0.26230888     1.09300
C953        C  0.18172179  0.54601492  0.24021378     1.09200
O954        O  0.46098458  0.79636880  0.27580420    -0.80400
O955        O  0.45496412  0.70513290  0.22675702    -0.80400
O956        O  0.45869221  0.77496315  0.20406783    -0.80400
O957        O  0.45761750  0.72734054  0.29566551    -0.80300
O958        O  0.47619606  0.73577624  0.17776632    -0.80500
O959        O  0.47964014  0.76312273  0.32315389    -0.80400
O960        O  0.47370459  0.67759989  0.26456549    -0.80400
O961        O  0.48036309  0.82210571  0.23723027    -0.80400
C962        C  0.46340192  0.82197003  0.26222844     1.09300
C963        C  0.45468228  0.67971698  0.24108751     1.09200
C964        C  0.45974600  0.76104254  0.17846212     1.09300
C965        C  0.45974205  0.74034719  0.32157731     1.09200
O966        O  0.04763314  0.77162595  0.29470519    -0.80400
O967        O  0.04292557  0.72035578  0.20382125    -0.80500
O968        O  0.04679553  0.79291654  0.22384612    -0.80400
O969        O  0.04331788  0.70084539  0.27436398    -0.80400
O970        O  0.02134781  0.67444515  0.23746180    -0.80400
O971        O  0.02924115  0.82042890  0.26205095    -0.80400
O972        O  0.02664447  0.73505969  0.32223702    -0.80300
O973        O  0.02563841  0.75980201  0.17754347    -0.80400
Co974      Co  0.00429248  0.78431193  0.28543604     1.51500
Co975      Co  0.49900012  0.71260168  0.21507692     1.51700
Co976      Co  0.50269776  0.78410667  0.21408220     1.51600
Co977      Co  0.00050421  0.71378937  0.28557858     1.51500
O978        O  0.00194146  0.74882987  0.24984368    -1.42300
C979        C  0.04612363  0.75821799  0.32053487     1.09200
C980        C  0.04214502  0.73452475  0.17839042     1.09300
C981        C  0.04613856  0.81882657  0.23705841     1.09300
C982        C  0.04063666  0.67519784  0.26077210     1.09200
O983        O  0.20679145  0.71757711  0.45924371    -0.80400
O984        O  0.29963026  0.78226030  0.45931982    -0.80400
O985        O  0.22186427  0.79708959  0.45770933    -0.80400
O986        O  0.28624782  0.70406479  0.46090134    -0.80300
O987        O  0.26014526  0.82415076  0.47746897    -0.80500
O988        O  0.24747476  0.67711531  0.47933789    -0.80400
O989        O  0.32666026  0.74421317  0.47945543    -0.80400
O990        O  0.17985662  0.75671505  0.47704185    -0.80400
C991        C  0.18103350  0.73123298  0.46068700     1.09300
C992        C  0.32502525  0.76788612  0.46046868     1.09200
C993        C  0.23629933  0.82253617  0.45874837     1.09300
C994        C  0.27269574  0.67832485  0.46258753     1.09200
O995        O  0.23420264  0.70688153  0.04643340    -0.80400
O996        O  0.26995852  0.79552562  0.04568825    -0.80500
O997        O  0.20810242  0.76972886  0.04462132    -0.80400
O998        O  0.29684525  0.73408673  0.04737468    -0.80400
O999        O  0.32378197  0.77103814  0.02738489    -0.80400
O1000       O  0.18155499  0.73200021  0.02600421    -0.80400
O1001       O  0.27211599  0.68023540  0.02827709    -0.80300
O1002       O  0.23312675  0.82236005  0.02532179    -0.80400
Co1003     Co  0.22072662  0.71206044  0.00262760     1.51500
Co1004     Co  0.28489559  0.78921541  0.50238303     1.51700
Co1005     Co  0.21453391  0.78317651  0.50100447     1.51600
Co1006     Co  0.29162482  0.71902655  0.00394169     1.51500
O1007       O  0.25287724  0.75068525  0.49822208    -1.42300
C1008       C  0.24733976  0.68099995  0.04537467     1.09200
C1009       C  0.25630177  0.82117376  0.04463867     1.09300
C1010       C  0.18223649  0.75670675  0.04319377     1.09300
C1011       C  0.32252948  0.74777270  0.04656987     1.09200
C1012       C  0.30100453  0.96945682  0.39948612     0.02900
C1013       C  0.27691647  0.96663543  0.37670095    -0.13300
C1014       C  0.28054588  0.94855672  0.34941739     0.00400
C1015       C  0.30754256  0.92855850  0.34700679    -0.11800
C1016       C  0.32999899  0.92708511  0.37201528     0.02900
C1017       C  0.32692589  0.94834190  0.39779917    -0.11200
H1018       H  0.25456201  0.97802292  0.37980720     0.08500
H1019       H  0.31088861  0.91400985  0.32602575     0.06000
H1020       H  0.34415191  0.94776550  0.41694669     0.05900
C1021       C  0.37972876  0.85587904  0.39804938     0.02900
C1022       C  0.35590992  0.87936087  0.39669887    -0.13300
C1023       C  0.35559424  0.90245724  0.37236319     0.00400
C1024       C  0.37961100  0.90186953  0.34894177    -0.11800
C1025       C  0.40373074  0.87854737  0.34970535     0.02900
C1026       C  0.40355748  0.85572943  0.37438836    -0.11200
H1027       H  0.33747579  0.87967873  0.41469717     0.08500
H1028       H  0.37959460  0.91958050  0.33023115     0.06000
H1029       H  0.42197057  0.83772826  0.37510233     0.05900
C1030       C  0.47899347  0.90021305  0.30340980     0.02900
C1031       C  0.48234753  0.87297760  0.28520033    -0.13300
C1032       C  0.45774383  0.85077465  0.28190203     0.00400
C1033       C  0.43195199  0.85258340  0.30337007    -0.11800
C1034       C  0.42950406  0.87806049  0.32515192     0.02900
C1035       C  0.45226098  0.90272370  0.32368700    -0.11200
H1036       H  0.00484340  0.86948072  0.27424459     0.08500
H1037       H  0.41431848  0.83381512  0.30373779     0.06000
H1038       H  0.44918894  0.92372491  0.33827533     0.05900
C1039       C  0.40544815  0.80312204  0.46793127     0.02900
C1040       C  0.38104788  0.78074942  0.46682268    -0.13300
C1041       C  0.35371816  0.78515928  0.44922473     0.00400
C1042       C  0.35261525  0.81087210  0.42758097    -0.11800
C1043       C  0.37929708  0.83109717  0.42371898     0.02900
C1044       C  0.40540839  0.82749215  0.44473685    -0.11200
H1045       H  0.38279953  0.75906795  0.47944688     0.09300
H1046       H  0.33135648  0.81489922  0.41361930     0.06000
H1047       H  0.42569066  0.84322884  0.44272484     0.05900
C1048       C  0.14886359  0.59961633  0.37239018     0.02900
C1049       C  0.12418673  0.59928218  0.34968130    -0.13300
C1050       C  0.09945991  0.62200531  0.35082141     0.00400
C1051       C  0.09964077  0.64524482  0.37499503    -0.11800
C1052       C  0.12412973  0.64611785  0.39781920     0.02900
C1053       C  0.14855103  0.62318307  0.39625877    -0.11200
H1054       H  0.12420012  0.58137997  0.33115752     0.08500
H1055       H  0.08079643  0.66278710  0.37590237     0.06000
H1056       H  0.16736356  0.62355593  0.41386523     0.05900
C1057       C  0.15231065  0.71186303  0.45383454     0.02900
C1058       C  0.12926947  0.70871898  0.47764274    -0.13300
C1059       C  0.10097407  0.69268350  0.47246608     0.00400
C1060       C  0.09849999  0.67318990  0.44515246    -0.11800
C1061       C  0.12429015  0.67052768  0.42370802     0.02900
C1062       C  0.15066995  0.69100885  0.42762095    -0.11200
H1063       H  0.13289088  0.71833692  0.50081205     0.08500
H1064       H  0.07684917  0.65994572  0.44080336     0.06000
H1065       H  0.17010678  0.69018669  0.41074586     0.05900
C1066       C  0.20507404  0.53377710  0.39954147     0.02900
C1067       C  0.17877482  0.55448585  0.39800871    -0.13300
C1068       C  0.17492871  0.57534100  0.37197102     0.00400
C1069       C  0.19685460  0.57346495  0.34647757    -0.11800
C1070       C  0.22421547  0.55385511  0.34883977     0.02900
C1071       C  0.22889833  0.53691177  0.37662038    -0.11200
H1072       H  0.16185003  0.55503572  0.41741807     0.08500
H1073       H  0.19275257  0.58725841  0.32512188     0.06000
H1074       H  0.25170909  0.52638568  0.37989844     0.05900
C1075       C  0.04928381  0.64649688  0.27936788     0.02900
C1076       C  0.07177670  0.64736772  0.30423390    -0.13300
C1077       C  0.07389705  0.62208940  0.32621535     0.00400
C1078       C  0.05136100  0.59719046  0.32462249    -0.11800
C1079       C  0.02761076  0.59707382  0.30082862     0.02900
C1080       C  0.02890722  0.62070938  0.27750019    -0.11200
H1081       H  0.08752018  0.66762370  0.30653554     0.08500
H1082       H  0.05268531  0.57774233  0.34145917     0.06000
H1083       H  0.01448408  0.61947043  0.25697965     0.05900
O1084       O  0.21150632  0.52919897  0.45373844    -0.80400
O1085       O  0.20667532  0.97860936  0.04449526    -0.80400
O1086       O  0.20744426  0.95701626  0.47413037    -0.80400
O1087       O  0.21116506  0.54901485  0.02404156    -0.80300
O1088       O  0.22493053  0.92949992  0.01233783    -0.80500
O1089       O  0.23314799  0.57537670  0.48713688    -0.80400
O1090       O  0.22778610  0.51498431  0.07211348    -0.80400
O1091       O  0.22873611  0.98967955  0.42752709    -0.80400
C1092       C  0.21222712  0.51494764  0.42834667     1.09300
C1093       C  0.20825149  0.49187891  0.07037663     1.09200
C1094       C  0.20802839  0.93111351  0.98735886     1.09300
C1095       C  0.21384759  0.57465180  0.01042710     1.09200
O1096       O  0.29947691  0.54468041  0.47646937    -0.80400
O1097       O  0.29324934  0.95330239  0.02607019    -0.80500
O1098       O  0.29556749  0.97441969  0.45393701    -0.80400
O1099       O  0.29683936  0.52261460  0.04559235    -0.80400
O1100       O  0.27473363  0.98687910  0.07310012    -0.80400
O1101       O  0.27818536  0.51379508  0.42771511    -0.80400
O1102       O  0.28078841  0.57224222  0.01428646    -0.80300
O1103       O  0.27380114  0.92754321  0.48753589    -0.80400
Co1104     Co  0.25543088  0.53710045  0.46489883     1.51500
Co1105     Co  0.24999021  0.96565114  0.03548752     1.51700
Co1106     Co  0.25157801  0.96551702  0.46418589     1.51600
Co1107     Co  0.25396377  0.53612671  0.03539024     1.51500
O1108       O  0.25260970  0.00097115  0.99976627    -1.42300
C1109       C  0.29977267  0.57010550  0.99078150     1.09200
C1110       C  0.29075199  0.92768311  0.01255023     1.09300
C1111       C  0.29460129  0.98850489  0.42839915     1.09300
C1112       C  0.29467039  0.00962089  0.07150891     1.09200
C1113       C  0.14725131  0.87712785  0.39846937     0.02900
C1114       C  0.12401467  0.85306750  0.39686719    -0.13300
C1115       C  0.10094170  0.85277541  0.37252039     0.00400
C1116       C  0.10141995  0.87712902  0.34940457    -0.11800
C1117       C  0.12454945  0.90151562  0.35051665     0.02900
C1118       C  0.14727333  0.90125842  0.37516601    -0.11200
H1119       H  0.12393388  0.83439368  0.41462543     0.08500
H1120       H  0.08386175  0.87708857  0.33055532     0.06000
H1121       H  0.16522735  0.91971675  0.37601943     0.05900
C1122       C  0.20085218  0.90284018  0.46738796     0.02900
C1123       C  0.22365942  0.87879774  0.46548052    -0.13300
C1124       C  0.21892443  0.85134584  0.44798640     0.00400
C1125       C  0.19274760  0.85011926  0.42698567    -0.11800
C1126       C  0.17219977  0.87657368  0.42381655     0.02900
C1127       C  0.17589710  0.90254542  0.44490844    -0.11200
H1128       H  0.24581702  0.88093229  0.47731963     0.08500
H1129       H  0.18860600  0.82892203  0.41296158     0.06000
H1130       H  0.15980712  0.92259801  0.44342696     0.05900
C1131       C  0.10044397  0.97265131  0.29903646     0.02900
C1132       C  0.10048783  0.94945751  0.32337699    -0.13300
C1133       C  0.12531880  0.92693242  0.32561376     0.00400
C1134       C  0.15098883  0.92901164  0.30400272    -0.11800
C1135       C  0.15017181  0.95096589  0.27854498     0.02900
C1136       C  0.12393837  0.97065249  0.27562608    -0.11200
H1137       H  0.08091343  0.94845363  0.34008523     0.08500
H1138       H  0.17141675  0.91361489  0.30696482     0.06000
H1139       H  0.12222293  0.98392778  0.25428730     0.05900
C1140       C  0.05573578  0.77718324  0.34885466     0.02900
C1141       C  0.07518479  0.80464992  0.34653057    -0.13300
C1142       C  0.07658329  0.82680424  0.37184955     0.00400
C1143       C  0.05543548  0.82305851  0.39765534    -0.11800
C1144       C  0.03489974  0.79662679  0.39921220     0.02900
C1145       C  0.03844434  0.77260799  0.37650813    -0.11200
H1146       H  0.08930191  0.80861216  0.32536497     0.08500
H1147       H  0.05567473  0.84014985  0.41692818     0.06000
H1148       H  0.02807024  0.74972579  0.37993270     0.05900
C1149       C  0.37353150  0.65273684  0.10036556     0.02900
C1150       C  0.39684734  0.65268418  0.12459150    -0.13300
C1151       C  0.39783154  0.62830330  0.14759767     0.00400
C1152       C  0.37490374  0.60388395  0.14613097    -0.11800
C1153       C  0.35125446  0.60352577  0.12234742     0.02900
C1154       C  0.35081788  0.62804331  0.09945931    -0.11200
H1155       H  0.41426374  0.67164510  0.12549118     0.08500
H1156       H  0.37522476  0.58518563  0.16386393     0.06000
H1157       H  0.33274093  0.62802103  0.08110450     0.05900
C1158       C  0.46241154  0.60011683  0.20515506     0.02900
C1159       C  0.45832395  0.62284286  0.22907080    -0.13300
C1160       C  0.44310392  0.65143907  0.22324527     0.00400
C1161       C  0.42442273  0.65412305  0.19531647    -0.11800
C1162       C  0.42202849  0.62831177  0.17382247     0.02900
C1163       C  0.44234538  0.60186404  0.17829540    -0.11200
H1164       H  0.96675529  0.61878146  0.25269439     0.08500
H1165       H  0.41160980  0.67594040  0.19053895     0.06000
H1166       H  0.44195068  0.58244048  0.16138823     0.05900
C1167       C  0.39991866  0.70746533  0.03292685     0.02900
C1168       C  0.37817599  0.73235877  0.03731302    -0.13300
C1169       C  0.35095506  0.72870118  0.05559909     0.00400
C1170       C  0.34861123  0.70161071  0.07546511    -0.11800
C1171       C  0.37324419  0.67875955  0.07615088     0.02900
C1172       C  0.39818941  0.68129327  0.05385892    -0.11200
H1173       H  0.38203096  0.75525284  0.02718131     0.08500
H1174       H  0.32781488  0.69834165  0.09029632     0.06000
H1175       H  0.41674000  0.66342682  0.05350056     0.05900
C1176       C  0.28420060  0.54902778  0.14995822     0.02900
C1177       C  0.30571609  0.57466488  0.14835663    -0.13300
C1178       C  0.32674353  0.57775629  0.12235052     0.00400
C1179       C  0.32473723  0.55549953  0.09719222    -0.11800
C1180       C  0.30436584  0.52876148  0.09960952     0.02900
C1181       C  0.28651920  0.52515090  0.12697099    -0.11200
H1182       H  0.30665156  0.59173097  0.16762813     0.08500
H1183       H  0.33899545  0.55890376  0.07602073     0.06000
H1184       H  0.27472966  0.00301723  0.12986102     0.05900
O1185       O  0.45946150  0.79551647  0.47433611    -0.80400
O1186       O  0.05007350  0.79136799  0.02501230    -0.80400
O1187       O  0.48117315  0.79506448  0.04547562    -0.80400
O1188       O  0.02963205  0.79094402  0.45350840    -0.80300
O1189       O  0.01673628  0.77290398  0.07315708    -0.80500
O1190       O  0.49063412  0.77312252  0.42716774    -0.80400
O1191       O  0.07604239  0.77053526  0.48704445    -0.80400
O1192       O  0.43189633  0.77861651  0.01280064    -0.80400
C1193       C  0.43370745  0.79557074  0.48781596     1.09300
C1194       C  0.07537013  0.78957768  0.51060972     1.09200
C1195       C  0.99383733  0.79263297  0.07158618     1.09300
C1196       C  0.01577623  0.78975209  0.42792873     1.09200
O1197       O  0.47465238  0.70691551  0.45448401    -0.80400
O1198       O  0.02503820  0.70489398  0.04499772    -0.80500
O1199       O  0.45425431  0.70932044  0.02553304    -0.80400
O1200       O  0.04700334  0.70334607  0.47653393    -0.80400
O1201       O  0.07457117  0.72264809  0.01404678    -0.80400
O1202       O  0.42829009  0.72994402  0.48791630    -0.80400
O1203       O  0.01447837  0.72358251  0.42830881    -0.80300
O1204       O  0.48849216  0.72601497  0.07241223    -0.80400
Co1205     Co  0.46675285  0.75113970  0.46448913     1.51500
Co1206     Co  0.03786708  0.74814949  0.03554290     1.51700
Co1207     Co  0.46739789  0.75218300  0.03565016     1.51600
Co1208     Co  0.03830393  0.74718021  0.46483818     1.51500
O1209       O  0.00250853  0.74957106  0.49991563    -1.42300
C1210       C  0.98896713  0.70739625  0.42907097     1.09200
C1211       C  0.01139114  0.70623010  0.07065571     1.09300
C1212       C  0.42841463  0.71272686  0.01269182     1.09300
C1213       C  0.07261993  0.70366603  0.99054817     1.09200
C1214       C  0.10209834  0.53774139  0.20356455     0.02900
C1215       C  0.10377134  0.55832816  0.17715886    -0.13300
C1216       C  0.13012228  0.57880204  0.17313472     0.00400
C1217       C  0.15591178  0.57628348  0.19460925    -0.11800
C1218       C  0.15339243  0.55702101  0.22210024     0.02900
C1219       C  0.12504504  0.54114964  0.22742331    -0.11200
H1220       H  0.08435352  0.55899423  0.16024988     0.08500
H1221       H  0.17757413  0.58947525  0.19016246     0.06000
H1222       H  0.12134090  0.53179893  0.25069967     0.05900
C1223       C  0.13012829  0.60319249  0.14723623     0.02900
C1224       C  0.15455679  0.60420095  0.12436495    -0.13300
C1225       C  0.15462616  0.62753540  0.10027663     0.00400
C1226       C  0.12983354  0.65019828  0.09926533    -0.11800
C1227       C  0.10521804  0.64972712  0.12204322     0.02900
C1228       C  0.10563606  0.62605625  0.14579979    -0.11200
H1229       H  0.17346561  0.58672418  0.12519873     0.08500
H1230       H  0.12975125  0.66818983  0.08082541     0.06000
H1231       H  0.08687701  0.62558176  0.16345787     0.05900
C1232       C  0.02989165  0.69570936  0.09888756     0.02900
C1233       C  0.05718033  0.67602918  0.09640966    -0.13300
C1234       C  0.07914547  0.67400123  0.12185091     0.00400
C1235       C  0.07538674  0.69476383  0.14798986    -0.11800
C1236       C  0.04917137  0.71559157  0.14960283     0.02900
C1237       C  0.02530399  0.71257965  0.12671600    -0.11200
H1238       H  0.06121899  0.66232789  0.07498497     0.08500
H1239       H  0.09234949  0.69410616  0.16736488     0.06000
H1240       H  0.00254998  0.72320448  0.13002158     0.05900
C1241       C  0.22680989  0.65265043  0.05083037     0.02900
C1242       C  0.20282755  0.65251117  0.07439667    -0.13300
C1243       C  0.18022352  0.62765190  0.07571063     0.00400
C1244       C  0.18242285  0.60249037  0.05361767    -0.11800
C1245       C  0.20518015  0.60334721  0.02900718     0.02900
C1246       C  0.22575605  0.62900867  0.02749687    -0.11200
H1247       H  0.20140513  0.67189299  0.09129736     0.08500
H1248       H  0.16658646  0.58228162  0.05569045     0.06000
H1249       H  0.24054803  0.63015038  0.50724748     0.05900
C1250       C  0.40289630  0.64647388  0.37214014     0.02900
C1251       C  0.40342999  0.62200213  0.34919863    -0.13300
C1252       C  0.38070560  0.59730665  0.34993871     0.00400
C1253       C  0.35725417  0.59732991  0.37403791    -0.11800
C1254       C  0.35616810  0.62166383  0.39708980     0.02900
C1255       C  0.37911518  0.64607661  0.39578480    -0.11200
H1256       H  0.42159867  0.62205502  0.33093924     0.08500
H1257       H  0.33984100  0.57836103  0.37482951     0.06000
H1258       H  0.37872988  0.66472232  0.41356707     0.05900
C1259       C  0.44999990  0.72120686  0.34967640     0.02900
C1260       C  0.46781314  0.72475049  0.37708380    -0.13300
C1261       C  0.46996158  0.70087863  0.40011124     0.00400
C1262       C  0.44835720  0.67530206  0.39843555    -0.11800
C1263       C  0.42742768  0.67224549  0.37232741     0.02900
C1264       C  0.42956628  0.69452130  0.34719688    -0.11200
H1265       H  0.47972203  0.74681777  0.37997998     0.08500
H1266       H  0.44731350  0.65823005  0.41769867     0.06000
H1267       H  0.41536563  0.69116212  0.32597776     0.05900
C1268       C  0.31132251  0.59837868  0.47291221     0.02900
C1269       C  0.32972024  0.59568807  0.44479746    -0.13300
C1270       C  0.33198238  0.62153546  0.42332764     0.00400
C1271       C  0.31171254  0.64799028  0.42799636    -0.11800
C1272       C  0.29194376  0.64974338  0.45507409     0.02900
C1273       C  0.29630557  0.62703171  0.47895430    -0.11200
H1274       H  0.34245516  0.57385655  0.43988152     0.08500
H1275       H  0.31197512  0.66744052  0.41111459     0.06000
H1276       H  0.28823819  0.63115620  0.50270508     0.05900
C1277       C  0.35444797  0.54260212  0.28246926     0.02900
C1278       C  0.35618418  0.56878270  0.30336826    -0.13300
C1279       C  0.38110384  0.57131598  0.32568184     0.00400
C1280       C  0.40574592  0.54845502  0.32502628    -0.11800
C1281       C  0.40342683  0.52135044  0.30516295     0.02900
C1282       C  0.37621732  0.51771354  0.28684739    -0.11200
H1283       H  0.33762554  0.58664280  0.30299687     0.08500
H1284       H  0.42651350  0.55171150  0.33990206     0.06000
H1285       H  0.37237878  0.99481251  0.27672371     0.05900
C1286       C  0.35086181  0.87122802  0.09978814     0.02900
C1287       C  0.37507701  0.84799509  0.09904778    -0.13300
C1288       C  0.39910840  0.84752120  0.12247745     0.00400
C1289       C  0.39873376  0.87065936  0.14675564    -0.11800
C1290       C  0.37483185  0.89405070  0.14806102     0.02900
C1291       C  0.35098358  0.89408140  0.12442545    -0.11200
H1292       H  0.37513935  0.83025017  0.08037375     0.08500
H1293       H  0.41717553  0.87043560  0.16475255     0.06000
H1294       H  0.33250714  0.91201871  0.12512730     0.05900
C1295       C  0.34902659  0.94694699  0.21775231     0.02900
C1296       C  0.34911455  0.92248325  0.19466839    -0.13300
C1297       C  0.37521048  0.91888632  0.17364360     0.00400
C1298       C  0.40183672  0.93918173  0.17740030    -0.11800
C1299       C  0.40068794  0.96495687  0.19894087     0.02900
C1300       C  0.37335021  0.96939707  0.21650559    -0.11200
H1301       H  0.32887813  0.90667694  0.19273726     0.08500
H1302       H  0.42309549  0.93515156  0.16344354     0.06000
H1303       H  0.37153917  0.99116844  0.22898030     0.05900
C1304       C  0.45351555  0.78031017  0.14961297     0.02900
C1305       C  0.47765729  0.78314838  0.12688717    -0.13300
C1306       C  0.47417355  0.80140369  0.09969086     0.00400
C1307       C  0.44728873  0.82154011  0.09731114    -0.11800
C1308       C  0.42474348  0.82293432  0.12222709     0.02900
C1309       C  0.42768181  0.80155388  0.14794270    -0.11200
H1310       H  0.99991715  0.77157907  0.12992313     0.08500
H1311       H  0.44404568  0.83618882  0.07637923     0.06000
H1312       H  0.41038530  0.80208999  0.16702409     0.05900
C1313       C  0.27530134  0.84949316  0.05396611     0.02900
C1314       C  0.27177223  0.87680157  0.03588048    -0.13300
C1315       C  0.29643886  0.89890021  0.03226597     0.00400
C1316       C  0.32242699  0.89704426  0.05349630    -0.11800
C1317       C  0.32500426  0.87160185  0.07530677     0.02900
C1318       C  0.30221144  0.84695561  0.07402872    -0.11200
H1319       H  0.24910896  0.88042135  0.02524604     0.08500
H1320       H  0.34010337  0.91577614  0.05368598     0.06000
H1321       H  0.30539094  0.82595170  0.08859420     0.05900
C1322       C  0.10738357  0.87274056  0.14844454     0.02900
C1323       C  0.13058261  0.89683129  0.14674799    -0.13300
C1324       C  0.15356775  0.89714334  0.12231664     0.00400
C1325       C  0.15305324  0.87278671  0.09922522    -0.11800
C1326       C  0.12998524  0.84835912  0.10044669     0.02900
C1327       C  0.10734786  0.84858079  0.12517377    -0.11200
H1328       H  0.13068739  0.91552488  0.16448081     0.08500
H1329       H  0.17054623  0.87284721  0.08031735     0.06000
H1330       H  0.08942047  0.83009899  0.12608485     0.05900
C1331       C  0.21960541  0.95321564  0.14896549     0.02900
C1332       C  0.21605199  0.97726994  0.12628874    -0.13300
C1333       C  0.19874812  0.97275138  0.09863680     0.00400
C1334       C  0.17932416  0.94526475  0.09627146    -0.11800
C1335       C  0.17793142  0.92309047  0.12158619     0.02900
C1336       C  0.19908639  0.92679388  0.14737928    -0.11200
H1337       H  0.22639787  0.00015652  0.12973603     0.08500
H1338       H  0.16519332  0.94132696  0.07510794     0.06000
H1339       H  0.19885023  0.90968109  0.16663861     0.05900
C1340       C  0.05338201  0.84709567  0.21708444     0.02900
C1341       C  0.07856490  0.84743340  0.19486198    -0.13300
C1342       C  0.08238060  0.87336979  0.17374111     0.00400
C1343       C  0.06179560  0.89981501  0.17673803    -0.11800
C1344       C  0.03541875  0.89856024  0.19748730     0.02900
C1345       C  0.03048115  0.87104006  0.21484165    -0.11200
H1346       H  0.09470919  0.82741289  0.19356030     0.08500
H1347       H  0.06604632  0.92101692  0.16275101     0.06000
H1348       H  0.00813167  0.86878845  0.22629680     0.05900
C1349       C  0.15403454  0.77723656  0.04897451     0.02900
C1350       C  0.15397653  0.80038444  0.07335054    -0.13300
C1351       C  0.12919018  0.82295740  0.07554975     0.00400
C1352       C  0.10353354  0.82092005  0.05392264    -0.11800
C1353       C  0.10435526  0.79898625  0.02845386     0.02900
C1354       C  0.13064326  0.77939166  0.02546237    -0.11200
H1355       H  0.17349804  0.80130509  0.09012883     0.08500
H1356       H  0.08308812  0.83628669  0.05691778     0.06000
H1357       H  0.13238318  0.76622012  0.50406789     0.05900
O1358       O  0.48438984  0.95416840  0.29520810    -0.80400
O1359       O  0.02026071  0.54287205  0.29616883    -0.80400
O1360       O  0.04635388  0.97977977  0.29433545    -0.80400
O1361       O  0.45756741  0.51579770  0.29713205    -0.80300
O1362       O  0.07279953  0.51768987  0.27585282    -0.80500
O1363       O  0.43060978  0.97891106  0.27704767    -0.80400
O1364       O  0.48237514  0.56958710  0.27805352    -0.80400
O1365       O  0.02116933  0.92730874  0.27477021    -0.80400
C1366       C  0.49800685  0.92850295  0.29408944     1.09300
C1367       C  0.50712624  0.56875372  0.29517563     1.09200
C1368       C  0.07214657  0.49297824  0.29305120     1.09300
C1369       C  0.43185188  0.50217922  0.29624275     1.09200
O1370       O  0.45478204  0.96791454  0.20889981    -0.80400
O1371       O  0.04765044  0.53202344  0.20900528    -0.80500
O1372       O  0.03254443  0.95281164  0.20729476    -0.80400
O1373       O  0.46824768  0.54577694  0.21065950    -0.80400
O1374       O  0.00702244  0.57267497  0.22910994    -0.80400
O1375       O  0.49415306  0.92578873  0.22688867    -0.80400
O1376       O  0.42773270  0.50583234  0.22920559    -0.80300
O1377       O  0.07464828  0.99295700  0.22689711    -0.80400
Co1378     Co  0.46945370  0.96068553  0.25194263     1.51500
Co1379     Co  0.03372223  0.53766539  0.25237488     1.51700
Co1380     Co  0.03987314  0.96652863  0.25066163     1.51600
Co1381     Co  0.46284672  0.53084701  0.25370083     1.51500
O1382       O  0.00155596  0.49911294  0.24797881    -1.42300
C1383       C  0.42936783  0.48224224  0.21013897     1.09200
C1384       C  0.07342289  0.51839063  0.21048341     1.09300
C1385       C  0.01804945  0.92739230  0.20822938     1.09300
C1386       C  0.98175762  0.57152582  0.21242314     1.09200
O1387       O  0.29500678  0.95442537  0.72415840    -0.80400
O1388       O  0.20447150  0.95830859  0.77471856    -0.80400
O1389       O  0.27342051  0.95492264  0.79522020    -0.80400
O1390       O  0.22486042  0.95874757  0.70328490    -0.80300
O1391       O  0.23777529  0.97686890  0.82293625    -0.80500
O1392       O  0.26380730  0.97670404  0.67696154    -0.80400
O1393       O  0.17835848  0.97911361  0.73685054    -0.80400
O1394       O  0.32255795  0.97149371  0.76256326    -0.80400
C1395       C  0.32076947  0.95447545  0.73762587     1.09300
C1396       C  0.17909435  0.96013601  0.76046628     1.09200
C1397       C  0.26079152  0.95727487  0.82134222     1.09300
C1398       C  0.23870986  0.96002188  0.67770091     1.09200
O1399       O  0.27949973  0.54296202  0.70428739    -0.80400
O1400       O  0.22906943  0.54485981  0.79490278    -0.80500
O1401       O  0.30007755  0.54072854  0.77520602    -0.80400
O1402       O  0.20732939  0.54632232  0.72621271    -0.80400
O1403       O  0.17976794  0.52703964  0.76372879    -0.80400
O1404       O  0.32600729  0.52010324  0.73755357    -0.80400
O1405       O  0.23977308  0.52614238  0.67807174    -0.80300
O1406       O  0.26580677  0.52390927  0.82220751    -0.80400
Co1407     Co  0.28756942  0.49877230  0.71427360     1.51500
Co1408     Co  0.21647580  0.00156502  0.78533852     1.51700
Co1409     Co  0.28701444  0.99784991  0.78540377     1.51600
Co1410     Co  0.21605915  0.50249383  0.71459869     1.51500
O1411       O  0.25184734  0.00029270  0.74971014    -1.42300
C1412       C  0.26520219  0.54243769  0.67886966     1.09200
C1413       C  0.24275952  0.54353760  0.82054228     1.09300
C1414       C  0.32590358  0.53733473  0.76230885     1.09300
C1415       C  0.18172175  0.54601499  0.74021398     1.09200
O1416       O  0.46098464  0.79636882  0.77580435    -0.80400
O1417       O  0.45496401  0.70513292  0.72675707    -0.80400
O1418       O  0.45869219  0.77496323  0.70406780    -0.80400
O1419       O  0.45761746  0.72734057  0.79566544    -0.80300
O1420       O  0.47619615  0.73577626  0.67776639    -0.80500
O1421       O  0.47964017  0.76312266  0.82315388    -0.80400
O1422       O  0.47370457  0.67759990  0.76456555    -0.80400
O1423       O  0.48036313  0.82210565  0.73723032    -0.80400
C1424       C  0.46340198  0.82197000  0.76222852     1.09300
C1425       C  0.45468226  0.67971696  0.74108753     1.09200
C1426       C  0.45974608  0.76104259  0.67846210     1.09300
C1427       C  0.45974204  0.74034716  0.82157725     1.09200
O1428       O  0.04763300  0.77162591  0.79470526    -0.80400
O1429       O  0.04292554  0.72035577  0.70382124    -0.80500
O1430       O  0.04679558  0.79291643  0.72384617    -0.80400
O1431       O  0.04331784  0.70084536  0.77436398    -0.80400
O1432       O  0.02134781  0.67444511  0.73746186    -0.80400
O1433       O  0.02924122  0.82042884  0.76205106    -0.80400
O1434       O  0.02664446  0.73505972  0.82223703    -0.80300
O1435       O  0.02563840  0.75980206  0.67754355    -0.80400
Co1436     Co  0.00429244  0.78431190  0.78543609     1.51500
Co1437     Co  0.49900010  0.71260167  0.71507700     1.51700
Co1438     Co  0.50269776  0.78410666  0.71408226     1.51600
Co1439     Co  0.00050419  0.71378939  0.78557862     1.51500
O1440       O  0.00194140  0.74882986  0.74984368    -1.42300
C1441       C  0.04612368  0.75821790  0.82053489     1.09200
C1442       C  0.04214498  0.73452477  0.67839044     1.09300
C1443       C  0.04613869  0.81882647  0.73705852     1.09300
C1444       C  0.04063662  0.67519779  0.76077217     1.09200
O1445       O  0.20679131  0.71757708  0.95924374    -0.80400
O1446       O  0.29963019  0.78226032  0.95931986    -0.80400
O1447       O  0.22186429  0.79708956  0.95770918    -0.80400
O1448       O  0.28624778  0.70406482  0.96090120    -0.80300
O1449       O  0.26014517  0.82415074  0.97746898    -0.80500
O1450       O  0.24747464  0.67711538  0.97933784    -0.80400
O1451       O  0.32666029  0.74421320  0.97945532    -0.80400
O1452       O  0.17985656  0.75671506  0.97704184    -0.80400
C1453       C  0.18103341  0.73123305  0.96068690     1.09300
C1454       C  0.32502523  0.76788619  0.96046862     1.09200
C1455       C  0.23629926  0.82253618  0.95874834     1.09300
C1456       C  0.27269569  0.67832489  0.96258751     1.09200
O1457       O  0.23420264  0.70688153  0.54643340    -0.80400
O1458       O  0.26995862  0.79552560  0.54568822    -0.80500
O1459       O  0.20810243  0.76972881  0.54462146    -0.80400
O1460       O  0.29684518  0.73408680  0.54737484    -0.80400
O1461       O  0.32378210  0.77103802  0.52738492    -0.80400
O1462       O  0.18155508  0.73200019  0.52600419    -0.80400
O1463       O  0.27211598  0.68023541  0.52827712    -0.80300
O1464       O  0.23312672  0.82235995  0.52532185    -0.80400
Co1465     Co  0.22072670  0.71206044  0.50262759     1.51500
Co1466     Co  0.28489549  0.78921539  0.00238304     1.51700
Co1467     Co  0.21453393  0.78317654  0.00100439     1.51600
Co1468     Co  0.29162480  0.71902657  0.50394181     1.51500
O1469       O  0.25287721  0.75068518  0.99822195    -1.42300
C1470       C  0.24733975  0.68099995  0.54537471     1.09200
C1471       C  0.25630184  0.82117373  0.54463861     1.09300
C1472       C  0.18223651  0.75670670  0.54319378     1.09300
C1473       C  0.32252950  0.74777261  0.54656997     1.09200
C1474       C  0.30100473  0.96945681  0.89948617     0.02900
C1475       C  0.27691653  0.96663554  0.87670092    -0.13300
C1476       C  0.28054597  0.94855666  0.84941740     0.00400
C1477       C  0.30754260  0.92855848  0.84700684    -0.11800
C1478       C  0.32999907  0.92708507  0.87201536     0.02900
C1479       C  0.32692594  0.94834183  0.89779921    -0.11200
H1480       H  0.25456273  0.97802312  0.87980683     0.08500
H1481       H  0.31088863  0.91400984  0.82602581     0.06000
H1482       H  0.34415202  0.94776519  0.91694714     0.05900
C1483       C  0.37972894  0.85587896  0.89804922     0.02900
C1484       C  0.35591001  0.87936083  0.89669875    -0.13300
C1485       C  0.35559431  0.90245725  0.87236308     0.00400
C1486       C  0.37961102  0.90186949  0.84894171    -0.11800
C1487       C  0.40373083  0.87854737  0.84970531     0.02900
C1488       C  0.40355758  0.85572949  0.87438828    -0.11200
H1489       H  0.33747588  0.87967862  0.91469699     0.08500
H1490       H  0.37959455  0.91958051  0.83023071     0.06000
H1491       H  0.42197110  0.83772789  0.87510216     0.05900
C1492       C  0.47899340  0.90021304  0.80340975     0.02900
C1493       C  0.48234741  0.87297759  0.78520035    -0.13300
C1494       C  0.45774371  0.85077459  0.78190208     0.00400
C1495       C  0.43195187  0.85258341  0.80337010    -0.11800
C1496       C  0.42950396  0.87806048  0.82515187     0.02900
C1497       C  0.45226090  0.90272374  0.82368690    -0.11200
H1498       H  0.00484386  0.86948058  0.77424450     0.08500
H1499       H  0.41431805  0.83381502  0.80373786     0.06000
H1500       H  0.44918891  0.92372492  0.83827520     0.05900
C1501       C  0.40544821  0.80312220  0.96793124     0.02900
C1502       C  0.38104786  0.78074958  0.96682268    -0.13300
C1503       C  0.35371816  0.78515944  0.94922466     0.00400
C1504       C  0.35261530  0.81087223  0.92758092    -0.11800
C1505       C  0.37929720  0.83109728  0.92371892     0.02900
C1506       C  0.40540841  0.82749223  0.94473685    -0.11200
H1507       H  0.38279952  0.75906820  0.97944668     0.09300
H1508       H  0.33135654  0.81489932  0.91361927     0.06000
H1509       H  0.42569106  0.84322893  0.94272465     0.05900
C1510       C  0.14886358  0.59961644  0.87239018     0.02900
C1511       C  0.12418666  0.59928223  0.84968139    -0.13300
C1512       C  0.09945987  0.62200537  0.85082142     0.00400
C1513       C  0.09964071  0.64524488  0.87499501    -0.11800
C1514       C  0.12412965  0.64611788  0.89781916     0.02900
C1515       C  0.14855100  0.62318316  0.89625877    -0.11200
H1516       H  0.12420010  0.58137996  0.83115765     0.08500
H1517       H  0.08079634  0.66278709  0.87590245     0.06000
H1518       H  0.16736362  0.62355629  0.91386512     0.05900
C1519       C  0.15231055  0.71186301  0.95383462     0.02900
C1520       C  0.12926935  0.70871900  0.97764277    -0.13300
C1521       C  0.10097395  0.69268351  0.97246609     0.00400
C1522       C  0.09849986  0.67318994  0.94515247    -0.11800
C1523       C  0.12428993  0.67052775  0.92370792     0.02900
C1524       C  0.15066980  0.69100889  0.92762096    -0.11200
H1525       H  0.13289081  0.71833689  0.00081230     0.08500
H1526       H  0.07684866  0.65994572  0.94080331     0.06000
H1527       H  0.17010673  0.69018679  0.91074592     0.05900
C1528       C  0.20507382  0.53377709  0.89954148     0.02900
C1529       C  0.17877468  0.55448591  0.89800880    -0.13300
C1530       C  0.17492860  0.57534106  0.87197104     0.00400
C1531       C  0.19685445  0.57346499  0.84647755    -0.11800
C1532       C  0.22421529  0.55385513  0.84883974     0.02900
C1533       C  0.22889820  0.53691164  0.87662035    -0.11200
H1534       H  0.16184996  0.55503577  0.91741816     0.08500
H1535       H  0.19275237  0.58725852  0.82512190     0.06000
H1536       H  0.25170844  0.52638568  0.87989826     0.05900
C1537       C  0.04928385  0.64649690  0.77936800     0.02900
C1538       C  0.07177672  0.64736780  0.80423390    -0.13300
C1539       C  0.07389710  0.62208948  0.82621530     0.00400
C1540       C  0.05136097  0.59719050  0.82462259    -0.11800
C1541       C  0.02761071  0.59707393  0.80082881     0.02900
C1542       C  0.02890708  0.62070944  0.77750027    -0.11200
H1543       H  0.08752027  0.66762370  0.80653522     0.08500
H1544       H  0.05268541  0.57774246  0.84145885     0.06000
H1545       H  0.01448456  0.61947057  0.75698052     0.05900
O1546       O  0.21150626  0.52919895  0.95373848    -0.80400
O1547       O  0.20667535  0.97860936  0.54449526    -0.80400
O1548       O  0.20744442  0.95701626  0.97413029    -0.80400
O1549       O  0.21116506  0.54901494  0.52404144    -0.80300
O1550       O  0.22493050  0.92949989  0.51233789    -0.80500
O1551       O  0.23314786  0.57537660  0.98713685    -0.80400
O1552       O  0.22778605  0.51498435  0.57211347    -0.80400
O1553       O  0.22873623  0.98967962  0.92752709    -0.80400
C1554       C  0.21222702  0.51494759  0.92834667     1.09300
C1555       C  0.20825143  0.49187899  0.57037663     1.09200
C1556       C  0.20802845  0.93111345  0.48735886     1.09300
C1557       C  0.21384766  0.57465190  0.51042704     1.09200
O1558       O  0.29947685  0.54468046  0.97646927    -0.80400
O1559       O  0.29324930  0.95330240  0.52607013    -0.80500
O1560       O  0.29556764  0.97441969  0.95393701    -0.80400
O1561       O  0.29683931  0.52261452  0.54559237    -0.80400
O1562       O  0.27473364  0.98687902  0.57310003    -0.80400
O1563       O  0.27818528  0.51379511  0.92771505    -0.80400
O1564       O  0.28078849  0.57224221  0.51428651    -0.80300
O1565       O  0.27380116  0.92754321  0.98753590    -0.80400
Co1566     Co  0.25543081  0.53710041  0.96489881     1.51500
Co1567     Co  0.24999021  0.96565115  0.53548746     1.51700
Co1568     Co  0.25157811  0.96551701  0.96418586     1.51600
Co1569     Co  0.25396377  0.53612672  0.53539023     1.51500
O1570       O  0.25260967  0.00097121  0.49976624    -1.42300
C1571       C  0.29977278  0.57010547  0.49078159     1.09200
C1572       C  0.29075200  0.92768310  0.51255020     1.09300
C1573       C  0.29460139  0.98850494  0.92839917     1.09300
C1574       C  0.29467041  0.00962084  0.57150882     1.09200
C1575       C  0.14725154  0.87712796  0.89846933     0.02900
C1576       C  0.12401478  0.85306755  0.89686721    -0.13300
C1577       C  0.10094185  0.85277536  0.87252035     0.00400
C1578       C  0.10142016  0.87712895  0.84940448    -0.11800
C1579       C  0.12454970  0.90151567  0.85051656     0.02900
C1580       C  0.14727348  0.90125844  0.87516592    -0.11200
H1581       H  0.12393373  0.83439387  0.91462567     0.08500
H1582       H  0.08386203  0.87708837  0.83055514     0.06000
H1583       H  0.16522788  0.91971722  0.87601932     0.05900
C1584       C  0.20085218  0.90284029  0.96738790     0.02900
C1585       C  0.22365936  0.87879778  0.96548045    -0.13300
C1586       C  0.21892450  0.85134592  0.94798632     0.00400
C1587       C  0.19274766  0.85011929  0.92698566    -0.11800
C1588       C  0.17219984  0.87657375  0.92381658     0.02900
C1589       C  0.17589711  0.90254544  0.94490844    -0.11200
H1590       H  0.24581709  0.88093232  0.97731972     0.08500
H1591       H  0.18860632  0.82892221  0.91296144     0.06000
H1592       H  0.15980683  0.92259804  0.94342705     0.05900
C1593       C  0.10044398  0.97265118  0.79903649     0.02900
C1594       C  0.10048786  0.94945737  0.82337698    -0.13300
C1595       C  0.12531896  0.92693236  0.82561364     0.00400
C1596       C  0.15098900  0.92901152  0.80400257    -0.11800
C1597       C  0.15017189  0.95096583  0.77854496     0.02900
C1598       C  0.12393837  0.97065242  0.77562612    -0.11200
H1599       H  0.08091341  0.94845325  0.84008512     0.08500
H1600       H  0.17141701  0.91361479  0.80696463     0.06000
H1601       H  0.12222283  0.98392763  0.75428751     0.05900
C1602       C  0.05573588  0.77718319  0.84885459     0.02900
C1603       C  0.07518485  0.80464976  0.84653053    -0.13300
C1604       C  0.07658343  0.82680413  0.87184940     0.00400
C1605       C  0.05543564  0.82305847  0.89765534    -0.11800
C1606       C  0.03489976  0.79662689  0.89921216     0.02900
C1607       C  0.03844444  0.77260805  0.87650816    -0.11200
H1608       H  0.08930213  0.80861198  0.82536447     0.08500
H1609       H  0.05567488  0.84014975  0.91692808     0.06000
H1610       H  0.02807026  0.74972591  0.87993278     0.05900
C1611       C  0.37353149  0.65273677  0.60036562     0.02900
C1612       C  0.39684732  0.65268411  0.62459164    -0.13300
C1613       C  0.39783152  0.62830324  0.64759777     0.00400
C1614       C  0.37490377  0.60388388  0.64613107    -0.11800
C1615       C  0.35125447  0.60352582  0.62234747     0.02900
C1616       C  0.35081781  0.62804336  0.59945937    -0.11200
H1617       H  0.41426380  0.67164497  0.62549134     0.08500
H1618       H  0.37522482  0.58518563  0.66386396     0.06000
H1619       H  0.33274075  0.62802115  0.58110458     0.05900
C1620       C  0.46241141  0.60011678  0.70515507     0.02900
C1621       C  0.45832388  0.62284282  0.72907087    -0.13300
C1622       C  0.44310383  0.65143908  0.72324518     0.00400
C1623       C  0.42442260  0.65412301  0.69531643    -0.11800
C1624       C  0.42202843  0.62831168  0.67382250     0.02900
C1625       C  0.44234526  0.60186394  0.67829553    -0.11200
H1626       H  0.96675548  0.61878155  0.75269448     0.08500
H1627       H  0.41160965  0.67594033  0.69053883     0.06000
H1628       H  0.44195037  0.58244010  0.66138855     0.05900
C1629       C  0.39991873  0.70746501  0.53292697     0.02900
C1630       C  0.37817592  0.73235845  0.53731303    -0.13300
C1631       C  0.35095492  0.72870079  0.55559918     0.00400
C1632       C  0.34861114  0.70161050  0.57546521    -0.11800
C1633       C  0.37324411  0.67875934  0.57615094     0.02900
C1634       C  0.39818943  0.68129318  0.55385909    -0.11200
H1635       H  0.38203064  0.75525202  0.52718139     0.08500
H1636       H  0.32781436  0.69834125  0.59029635     0.06000
H1637       H  0.41674014  0.66342632  0.55350064     0.05900
C1638       C  0.28420056  0.54902785  0.64995831     0.02900
C1639       C  0.30571603  0.57466503  0.64835668    -0.13300
C1640       C  0.32674355  0.57775633  0.62235058     0.00400
C1641       C  0.32473722  0.55549951  0.59719224    -0.11800
C1642       C  0.30436572  0.52876148  0.59960958     0.02900
C1643       C  0.28651900  0.52515098  0.62697102    -0.11200
H1644       H  0.30665158  0.59173106  0.66762823     0.08500
H1645       H  0.33899548  0.55890356  0.57602085     0.06000
H1646       H  0.27473012  0.00301728  0.62986080     0.05900
O1647       O  0.45946149  0.79551653  0.97433605    -0.80400
O1648       O  0.05007353  0.79136796  0.52501234    -0.80400
O1649       O  0.48117319  0.79506443  0.54547557    -0.80400
O1650       O  0.02963204  0.79094403  0.95350845    -0.80300
O1651       O  0.01673623  0.77290399  0.57315712    -0.80500
O1652       O  0.49063418  0.77312259  0.92716770    -0.80400
O1653       O  0.07604234  0.77053530  0.98704449    -0.80400
O1654       O  0.43189629  0.77861649  0.51280062    -0.80400
C1655       C  0.43370747  0.79557073  0.98781594     1.09300
C1656       C  0.07537010  0.78957774  0.01060972     1.09200
C1657       C  0.99383727  0.79263294  0.57158616     1.09300
C1658       C  0.01577624  0.78975221  0.92792876     1.09200
O1659       O  0.47465237  0.70691557  0.95448393    -0.80400
O1660       O  0.02503821  0.70489395  0.54499779    -0.80500
O1661       O  0.45425430  0.70932037  0.52553314    -0.80400
O1662       O  0.04700333  0.70334606  0.97653395    -0.80400
O1663       O  0.07457114  0.72264801  0.51404676    -0.80400
O1664       O  0.42829004  0.72994419  0.98791624    -0.80400
O1665       O  0.01447837  0.72358262  0.92830873    -0.80300
O1666       O  0.48849226  0.72601495  0.57241226    -0.80400
Co1667     Co  0.46675284  0.75113980  0.96448906     1.51500
Co1668     Co  0.03786711  0.74814946  0.53554296     1.51700
Co1669     Co  0.46739788  0.75218296  0.53565021     1.51600
Co1670     Co  0.03830388  0.74718025  0.96483822     1.51500
O1671       O  0.00250840  0.74957111  0.99991562    -1.42300
C1672       C  0.98896713  0.70739631  0.92907090     1.09200
C1673       C  0.01139115  0.70623004  0.57065578     1.09300
C1674       C  0.42841465  0.71272668  0.51269186     1.09300
C1675       C  0.07261993  0.70366598  0.49054812     1.09200
C1676       C  0.10209832  0.53774148  0.70356464     0.02900
C1677       C  0.10377133  0.55832814  0.67715888    -0.13300
C1678       C  0.13012229  0.57880203  0.67313477     0.00400
C1679       C  0.15591175  0.57628340  0.69460933    -0.11800
C1680       C  0.15339241  0.55702101  0.72210033     0.02900
C1681       C  0.12504505  0.54114958  0.72742348    -0.11200
H1682       H  0.08435329  0.55899444  0.66025015     0.08500
H1683       H  0.17757405  0.58947522  0.69016267     0.06000
H1684       H  0.12134095  0.53179926  0.75069956     0.05900
C1685       C  0.13012854  0.60319249  0.64723628     0.02900
C1686       C  0.15455693  0.60420091  0.62436494    -0.13300
C1687       C  0.15462629  0.62753531  0.60027662     0.00400
C1688       C  0.12983370  0.65019830  0.59926535    -0.11800
C1689       C  0.10521825  0.64972719  0.62204331     0.02900
C1690       C  0.10563624  0.62605622  0.64579984    -0.11200
H1691       H  0.17346615  0.58672439  0.62519900     0.08500
H1692       H  0.12975163  0.66818988  0.58082556     0.06000
H1693       H  0.08687755  0.62558182  0.66345792     0.05900
C1694       C  0.02989178  0.69570939  0.59888760     0.02900
C1695       C  0.05718050  0.67602921  0.59640972    -0.13300
C1696       C  0.07914557  0.67400127  0.62185108     0.00400
C1697       C  0.07538689  0.69476386  0.64799003    -0.11800
C1698       C  0.04917150  0.71559162  0.64960285     0.02900
C1699       C  0.02530415  0.71257970  0.62671601    -0.11200
H1700       H  0.06121932  0.66232804  0.57498529     0.08500
H1701       H  0.09234951  0.69410620  0.66736496     0.06000
H1702       H  0.00255022  0.72320436  0.63002167     0.05900
C1703       C  0.22680993  0.65265040  0.55083026     0.02900
C1704       C  0.20282757  0.65251109  0.57439661    -0.13300
C1705       C  0.18022360  0.62765176  0.57571054     0.00400
C1706       C  0.18242290  0.60249035  0.55361752    -0.11800
C1707       C  0.20518028  0.60334726  0.52900709     0.02900
C1708       C  0.22575608  0.62900871  0.52749691    -0.11200
H1709       H  0.20140504  0.67189278  0.59129699     0.08500
H1710       H  0.16658656  0.58228159  0.55569026     0.06000
H1711       H  0.24054738  0.63015037  0.00724761     0.05900
C1712       C  0.40289631  0.64647381  0.87214025     0.02900
C1713       C  0.40342994  0.62200199  0.84919869    -0.13300
C1714       C  0.38070549  0.59730654  0.84993874     0.00400
C1715       C  0.35725410  0.59732993  0.87403796    -0.11800
C1716       C  0.35616802  0.62166391  0.89708985     0.02900
C1717       C  0.37911518  0.64607664  0.89578487    -0.11200
H1718       H  0.42159856  0.62205487  0.83093925     0.08500
H1719       H  0.33984055  0.57836106  0.87482959     0.06000
H1720       H  0.37872970  0.66472279  0.91356716     0.05900
C1721       C  0.44999985  0.72120672  0.84967620     0.02900
C1722       C  0.46781303  0.72475053  0.87708371    -0.13300
C1723       C  0.46996158  0.70087871  0.90011116     0.00400
C1724       C  0.44835730  0.67530207  0.89843552    -0.11800
C1725       C  0.42742771  0.67224539  0.87232727     0.02900
C1726       C  0.42956628  0.69452113  0.84719674    -0.11200
H1727       H  0.47972177  0.74681787  0.87997981     0.08500
H1728       H  0.44731392  0.65823015  0.91769861     0.06000
H1729       H  0.41536571  0.69116154  0.82597711     0.05900
C1730       C  0.31132243  0.59837874  0.97291224     0.02900
C1731       C  0.32972018  0.59568813  0.94479746    -0.13300
C1732       C  0.33198229  0.62153547  0.92332766     0.00400
C1733       C  0.31171248  0.64799030  0.92799640    -0.11800
C1734       C  0.29194374  0.64974343  0.95507421     0.02900
C1735       C  0.29630556  0.62703177  0.97895427    -0.11200
H1736       H  0.34245506  0.57385653  0.93988144     0.08500
H1737       H  0.31197496  0.66744045  0.91111466     0.06000
H1738       H  0.28823780  0.63115620  0.00270528     0.05900
C1739       C  0.35444790  0.54260209  0.78246934     0.02900
C1740       C  0.35618422  0.56878267  0.80336835    -0.13300
C1741       C  0.38110389  0.57131588  0.82568188     0.00400
C1742       C  0.40574589  0.54845482  0.82502642    -0.11800
C1743       C  0.40342674  0.52135040  0.80516294     0.02900
C1744       C  0.37621723  0.51771351  0.78684743    -0.11200
H1745       H  0.33762568  0.58664287  0.80299696     0.08500
H1746       H  0.42651360  0.55171114  0.83990202     0.06000
H1747       H  0.37237866  0.99481230  0.77672379     0.05900
C1748       C  0.35086177  0.87122785  0.59978801     0.02900
C1749       C  0.37507696  0.84799499  0.59904769    -0.13300
C1750       C  0.39910835  0.84752099  0.62247721     0.00400
C1751       C  0.39873375  0.87065918  0.64675548    -0.11800
C1752       C  0.37483175  0.89405055  0.64806089     0.02900
C1753       C  0.35098352  0.89408123  0.62442535    -0.11200
H1754       H  0.37513921  0.83024968  0.58037334     0.08500
H1755       H  0.41717549  0.87043558  0.66475201     0.06000
H1756       H  0.33250696  0.91201855  0.62512722     0.05900
C1757       C  0.34902667  0.94694720  0.71775249     0.02900
C1758       C  0.34911461  0.92248335  0.69466851    -0.13300
C1759       C  0.37521046  0.91888628  0.67364359     0.00400
C1760       C  0.40183671  0.93918164  0.67740026    -0.11800
C1761       C  0.40068787  0.96495689  0.69894090     0.02900
C1762       C  0.37335021  0.96939724  0.71650557    -0.11200
H1763       H  0.32887812  0.90667746  0.69273715     0.08500
H1764       H  0.42309542  0.93515130  0.66344383     0.06000
H1765       H  0.37153925  0.99116919  0.72898046     0.05900
C1766       C  0.45351588  0.78031020  0.64961289     0.02900
C1767       C  0.47765751  0.78314845  0.62688708    -0.13300
C1768       C  0.47417378  0.80140366  0.59969081     0.00400
C1769       C  0.44728889  0.82154004  0.59731105    -0.11800
C1770       C  0.42474367  0.82293429  0.62222699     0.02900
C1771       C  0.42768199  0.80155386  0.64794263    -0.11200
H1772       H  0.99991723  0.77157887  0.62992322     0.08500
H1773       H  0.44404598  0.83618881  0.57637926     0.06000
H1774       H  0.41038578  0.80208998  0.66702391     0.05900
C1775       C  0.27530133  0.84949317  0.55396620     0.02900
C1776       C  0.27177223  0.87680152  0.53588050    -0.13300
C1777       C  0.29643880  0.89890014  0.53226599     0.00400
C1778       C  0.32242696  0.89704416  0.55349629    -0.11800
C1779       C  0.32500419  0.87160177  0.57530681     0.02900
C1780       C  0.30221143  0.84695561  0.57402877    -0.11200
H1781       H  0.24910900  0.88042127  0.52524614     0.08500
H1782       H  0.34010308  0.91577591  0.55368596     0.06000
H1783       H  0.30539088  0.82595178  0.58859438     0.05900
C1784       C  0.10738378  0.87274063  0.64844469     0.02900
C1785       C  0.13058277  0.89683124  0.64674806    -0.13300
C1786       C  0.15356783  0.89714339  0.62231681     0.00400
C1787       C  0.15305323  0.87278667  0.59922529    -0.11800
C1788       C  0.12998518  0.84835910  0.60044677     0.02900
C1789       C  0.10734787  0.84858076  0.62517389    -0.11200
H1790       H  0.13068759  0.91552526  0.66448144     0.08500
H1791       H  0.17054613  0.87284702  0.58031738     0.06000
H1792       H  0.08942063  0.83009896  0.62608526     0.05900
C1793       C  0.21960559  0.95321540  0.64896545     0.02900
C1794       C  0.21605232  0.97726980  0.62628873    -0.13300
C1795       C  0.19874814  0.97275118  0.59863689     0.00400
C1796       C  0.17932423  0.94526456  0.59627142    -0.11800
C1797       C  0.17793154  0.92309041  0.62158628     0.02900
C1798       C  0.19908654  0.92679371  0.64737938    -0.11200
H1799       H  0.22639791  0.00015553  0.62973590     0.08500
H1800       H  0.16519335  0.94132692  0.57510838     0.06000
H1801       H  0.19885029  0.90968117  0.66663856     0.05900
C1802       C  0.05338211  0.84709564  0.71708442     0.02900
C1803       C  0.07856493  0.84743346  0.69486190    -0.13300
C1804       C  0.08238075  0.87336987  0.67374102     0.00400
C1805       C  0.06179573  0.89981495  0.67673793    -0.11800
C1806       C  0.03541894  0.89856024  0.69748720     0.02900
C1807       C  0.03048123  0.87104002  0.71484166    -0.11200
H1808       H  0.09470919  0.82741292  0.69356023     0.08500
H1809       H  0.06604652  0.92101721  0.66275073     0.06000
H1810       H  0.00813188  0.86878836  0.72629663     0.05900
C1811       C  0.15403455  0.77723653  0.54897445     0.02900
C1812       C  0.15397651  0.80038438  0.57335053    -0.13300
C1813       C  0.12919013  0.82295731  0.57554980     0.00400
C1814       C  0.10353354  0.82091998  0.55392257    -0.11800
C1815       C  0.10435534  0.79898626  0.52845374     0.02900
C1816       C  0.13064330  0.77939167  0.52546229    -0.11200
H1817       H  0.17349802  0.80130498  0.59012884     0.08500
H1818       H  0.08308814  0.83628657  0.55691748     0.06000
H1819       H  0.13238306  0.76622000  0.00406807     0.05900
O1820       O  0.48438985  0.95416840  0.79520786    -0.80400
O1821       O  0.02026072  0.54287207  0.79616888    -0.80400
O1822       O  0.04635404  0.97977964  0.79433546    -0.80400
O1823       O  0.45756733  0.51579763  0.79713226    -0.80300
O1824       O  0.07279952  0.51768989  0.77585292    -0.80500
O1825       O  0.43060979  0.97891100  0.77704755    -0.80400
O1826       O  0.48237502  0.56958710  0.77805367    -0.80400
O1827       O  0.02116940  0.92730881  0.77477013    -0.80400
C1828       C  0.49800685  0.92850292  0.79408937     1.09300
C1829       C  0.50712620  0.56875372  0.79517568     1.09200
C1830       C  0.07214658  0.49297831  0.79305134     1.09300
C1831       C  0.43185175  0.50217924  0.79624274     1.09200
O1832       O  0.45478203  0.96791446  0.70889960    -0.80400
O1833       O  0.04765043  0.53202343  0.70900522    -0.80500
O1834       O  0.03254448  0.95281154  0.70729472    -0.80400
O1835       O  0.46824760  0.54577691  0.71065964    -0.80400
O1836       O  0.00702237  0.57267498  0.72911007    -0.80400
O1837       O  0.49415299  0.92578870  0.72688865    -0.80400
O1838       O  0.42773278  0.50583234  0.72920569    -0.80300
O1839       O  0.07464834  0.99295694  0.72689707    -0.80400
Co1840     Co  0.46945363  0.96068543  0.75194249     1.51500
Co1841     Co  0.03372223  0.53766539  0.75237493     1.51700
Co1842     Co  0.03987324  0.96652858  0.75066159     1.51600
Co1843     Co  0.46284665  0.53084702  0.75370100     1.51500
O1844       O  0.00155594  0.49911296  0.74797897    -1.42300
C1845       C  0.42936793  0.48224229  0.71013899     1.09200
C1846       C  0.07342292  0.51839067  0.71048339     1.09300
C1847       C  0.01804947  0.92739220  0.70822931     1.09300
C1848       C  0.98175754  0.57152580  0.71242326     1.09200
O1849       O  0.79500696  0.45442619  0.22415830    -0.80400
O1850       O  0.70447173  0.45830937  0.27471831    -0.80400
O1851       O  0.77342023  0.45492331  0.29521982    -0.80400
O1852       O  0.72486089  0.45874834  0.20328504    -0.80300
O1853       O  0.73777519  0.47686961  0.32293603    -0.80500
O1854       O  0.76380769  0.47670472  0.17696158    -0.80400
O1855       O  0.67835867  0.47911448  0.23685043    -0.80400
O1856       O  0.82255815  0.47149430  0.26256314    -0.80400
C1857       C  0.82076965  0.45447612  0.23762570     1.09300
C1858       C  0.67909456  0.46013686  0.26046616     1.09200
C1859       C  0.76079104  0.45727520  0.32134179     1.09300
C1860       C  0.73871030  0.46002251  0.17770105     1.09200
O1861       O  0.77950002  0.04296236  0.20428746    -0.80400
O1862       O  0.72906910  0.04485966  0.29490292    -0.80500
O1863       O  0.80007758  0.04072872  0.27520616    -0.80400
O1864       O  0.70732959  0.04632271  0.22621265    -0.80400
O1865       O  0.67976800  0.02703949  0.26372833    -0.80400
O1866       O  0.82600746  0.02010354  0.23755385    -0.80400
O1867       O  0.73977349  0.02614285  0.17807158    -0.80300
O1868       O  0.76580663  0.02390930  0.32220750    -0.80400
Co1869     Co  0.78756967  0.99877262  0.21427359     1.51500
Co1870     Co  0.71647602  0.50156588  0.28533826     1.51700
Co1871     Co  0.78701465  0.49785048  0.28540371     1.51600
Co1872     Co  0.71605945  0.00249425  0.21459841     1.51500
O1873       O  0.75184766  0.50029378  0.24970991    -1.42300
C1874       C  0.76520266  0.04243802  0.17886962     1.09200
C1875       C  0.74275925  0.04353746  0.32054238     1.09300
C1876       C  0.82590368  0.03733489  0.26230919     1.09300
C1877       C  0.68172181  0.04601498  0.24021365     1.09200
O1878       O  0.96098488  0.29636847  0.27580480    -0.80400
O1879       O  0.95496373  0.20513299  0.22675734    -0.80400
O1880       O  0.95869249  0.27496353  0.20406787    -0.80400
O1881       O  0.95761755  0.22733994  0.29566586    -0.80300
O1882       O  0.97619608  0.23577642  0.17776639    -0.80500
O1883       O  0.97964025  0.26312220  0.32315418    -0.80400
O1884       O  0.97370442  0.17759971  0.26456565    -0.80400
O1885       O  0.98036350  0.32210544  0.23723094    -0.80400
C1886       C  0.96340224  0.32196970  0.26222904     1.09300
C1887       C  0.95468204  0.17971694  0.24108770     1.09200
C1888       C  0.95974635  0.26104297  0.17846212     1.09300
C1889       C  0.95974199  0.24034680  0.32157756     1.09200
O1890       O  0.54763331  0.27162546  0.29470539    -0.80400
O1891       O  0.54292564  0.22035607  0.20382142    -0.80500
O1892       O  0.54679578  0.29291639  0.22384627    -0.80400
O1893       O  0.54331800  0.20084538  0.27436371    -0.80400
O1894       O  0.52134798  0.17444517  0.23746151    -0.80400
O1895       O  0.52924156  0.32042869  0.26205128    -0.80400
O1896       O  0.52664457  0.23505935  0.32223714    -0.80300
O1897       O  0.52563851  0.25980219  0.17754353    -0.80400
Co1898     Co  0.50429273  0.28431169  0.28543627     1.51500
Co1899     Co  0.99899982  0.21260156  0.21507702     1.51700
Co1900     Co  0.00269807  0.28410652  0.21408265     1.51600
Co1901     Co  0.50050434  0.21378920  0.28557857     1.51500
O1902       O  0.50194145  0.24882986  0.24984376    -1.42300
C1903       C  0.54612385  0.25821750  0.32053504     1.09200
C1904       C  0.54214519  0.23452498  0.17839055     1.09300
C1905       C  0.54613904  0.31882633  0.23705879     1.09300
C1906       C  0.54063680  0.17519783  0.26077182     1.09200
O1907       O  0.70679091  0.21757740  0.45924400    -0.80400
O1908       O  0.79962930  0.28226015  0.45931970    -0.80400
O1909       O  0.72186356  0.29708981  0.45770981    -0.80400
O1910       O  0.78624692  0.20406466  0.46090118    -0.80300
O1911       O  0.76014473  0.32415076  0.47746924    -0.80500
O1912       O  0.74747412  0.17711509  0.47933803    -0.80400
O1913       O  0.82665949  0.24421312  0.47945510    -0.80400
O1914       O  0.67985608  0.25671526  0.47704243    -0.80400
C1915       C  0.68103301  0.23123343  0.46068724     1.09300
C1916       C  0.82502435  0.26788609  0.46046836     1.09200
C1917       C  0.73629885  0.32253624  0.45874862     1.09300
C1918       C  0.77269504  0.17832464  0.46258757     1.09200
O1919       O  0.73420224  0.20688123  0.04643365    -0.80400
O1920       O  0.76995852  0.29552554  0.04568840    -0.80500
O1921       O  0.70810227  0.26972862  0.04462195    -0.80400
O1922       O  0.79684477  0.23408650  0.04737469    -0.80400
O1923       O  0.82378166  0.27103773  0.02738471    -0.80400
O1924       O  0.68155470  0.23200010  0.02600469    -0.80400
O1925       O  0.77211566  0.18023524  0.02827717    -0.80300
O1926       O  0.73312652  0.32236007  0.02532231    -0.80400
Co1927     Co  0.72072621  0.21206033  0.00262787     1.51500
Co1928     Co  0.78489506  0.28921529  0.50238305     1.51700
Co1929     Co  0.71453350  0.28317663  0.50100498     1.51600
Co1930     Co  0.79162423  0.21902640  0.00394170     1.51500
O1931       O  0.75287667  0.25068519  0.49822219    -1.42300
C1932       C  0.74733950  0.18099971  0.04537488     1.09200
C1933       C  0.75630180  0.32117372  0.04463889     1.09300
C1934       C  0.68223631  0.25670648  0.04319447     1.09300
C1935       C  0.82252908  0.24777230  0.04656973     1.09200
C1936       C  0.80100414  0.46945640  0.39948579     0.02900
C1937       C  0.77691581  0.46663516  0.37670063    -0.13300
C1938       C  0.78054526  0.44855652  0.34941689     0.00400
C1939       C  0.80754178  0.42855832  0.34700622    -0.11800
C1940       C  0.82999833  0.42708476  0.37201460     0.02900
C1941       C  0.82692542  0.44834150  0.39779857    -0.11200
H1942       H  0.75456173  0.47802253  0.37980675     0.08500
H1943       H  0.81088760  0.41400949  0.32602489     0.06000
H1944       H  0.84415177  0.44776501  0.41694619     0.05900
C1945       C  0.87972798  0.35587890  0.39804911     0.02900
C1946       C  0.85590897  0.37936058  0.39669819    -0.13300
C1947       C  0.85559341  0.40245685  0.37236251     0.00400
C1948       C  0.87961046  0.40186923  0.34894135    -0.11800
C1949       C  0.90373042  0.37854725  0.34970536     0.02900
C1950       C  0.90355696  0.35572947  0.37438842    -0.11200
H1951       H  0.83747418  0.37967815  0.41469625     0.08500
H1952       H  0.87959428  0.41958022  0.33023067     0.06000
H1953       H  0.92197078  0.33772828  0.37510289     0.05900
C1954       C  0.97899335  0.40021292  0.30341020     0.02900
C1955       C  0.98234770  0.37297725  0.28520093    -0.13300
C1956       C  0.95774382  0.35077427  0.28190265     0.00400
C1957       C  0.93195188  0.35258317  0.30337036    -0.11800
C1958       C  0.92950377  0.37806041  0.32515204     0.02900
C1959       C  0.95226070  0.40272370  0.32368700    -0.11200
H1960       H  0.50484391  0.36948025  0.27424500     0.08500
H1961       H  0.91431844  0.33381452  0.30373822     0.06000
H1962       H  0.94918857  0.42372523  0.33827521     0.05900
C1963       C  0.90544729  0.30312234  0.46793125     0.02900
C1964       C  0.88104704  0.28074958  0.46682248    -0.13300
C1965       C  0.85371729  0.28515947  0.44922459     0.00400
C1966       C  0.85261434  0.31087235  0.42758090    -0.11800
C1967       C  0.87929631  0.33109736  0.42371891     0.02900
C1968       C  0.90540742  0.32749252  0.44473694    -0.11200
H1969       H  0.88279889  0.25906793  0.47944613     0.09300
H1970       H  0.83135578  0.31489943  0.41361943     0.06000
H1971       H  0.92569002  0.34322929  0.44272471     0.05900
C1972       C  0.64886387  0.09961699  0.37239043     0.02900
C1973       C  0.62418699  0.09928261  0.34968142    -0.13300
C1974       C  0.59946004  0.12200550  0.35082142     0.00400
C1975       C  0.59964078  0.14524514  0.37499492    -0.11800
C1976       C  0.62412982  0.14611840  0.39781921     0.02900
C1977       C  0.64855120  0.12318380  0.39625882    -0.11200
H1978       H  0.62420045  0.08138041  0.33115792     0.08500
H1979       H  0.58079647  0.16278698  0.37590218     0.06000
H1980       H  0.66736411  0.12355677  0.41386559     0.05900
C1981       C  0.65231018  0.21186362  0.45383480     0.02900
C1982       C  0.62926911  0.20871919  0.47764290    -0.13300
C1983       C  0.60097375  0.19268404  0.47246621     0.00400
C1984       C  0.59849962  0.17319061  0.44515233    -0.11800
C1985       C  0.62428981  0.17052849  0.42370787     0.02900
C1986       C  0.65066947  0.19100965  0.42762094    -0.11200
H1987       H  0.63289066  0.21833709  0.50081304     0.08500
H1988       H  0.57684893  0.15994642  0.44080328     0.06000
H1989       H  0.67010634  0.19018757  0.41074587     0.05900
C1990       C  0.70507396  0.03377736  0.39954172     0.02900
C1991       C  0.67877495  0.05448643  0.39800905    -0.13300
C1992       C  0.67492888  0.07534156  0.37197132     0.00400
C1993       C  0.69685472  0.07346543  0.34647780    -0.11800
C1994       C  0.72421539  0.05385528  0.34883997     0.02900
C1995       C  0.72889827  0.03691177  0.37662054    -0.11200
H1996       H  0.66185027  0.05503649  0.41741846     0.08500
H1997       H  0.69275252  0.08725845  0.32512214     0.06000
H1998       H  0.75170844  0.02638561  0.37989835     0.05900
C1999       C  0.54928401  0.14649688  0.27936760     0.02900
C2000       C  0.57177680  0.14736777  0.30423364    -0.13300
C2001       C  0.57389721  0.12208948  0.32621513     0.00400
C2002       C  0.55136109  0.09719061  0.32462236    -0.11800
C2003       C  0.52761085  0.09707403  0.30082847     0.02900
C2004       C  0.52890728  0.12070954  0.27749995    -0.11200
H2005       H  0.58751988  0.16762374  0.30653526     0.08500
H2006       H  0.55268556  0.07774255  0.34145870     0.06000
H2007       H  0.51448466  0.11947069  0.25697991     0.05900
O2008       O  0.71150619  0.02919883  0.45373875    -0.80400
O2009       O  0.70667572  0.47860943  0.04449519    -0.80400
O2010       O  0.70744451  0.45701652  0.47413044    -0.80400
O2011       O  0.71116489  0.04901471  0.02404121    -0.80300
O2012       O  0.72493066  0.42950002  0.01233778    -0.80500
O2013       O  0.73314782  0.07537660  0.48713684    -0.80400
O2014       O  0.72778600  0.01498456  0.07211342    -0.80400
O2015       O  0.72873621  0.48967956  0.42752704    -0.80400
C2016       C  0.71222704  0.01494764  0.42834686     1.09300
C2017       C  0.70825132  0.99187926  0.07037658     1.09200
C2018       C  0.70802852  0.43111367  0.98735883     1.09300
C2019       C  0.71384735  0.07465174  0.01042685     1.09200
O2020       O  0.79947678  0.04468046  0.47646937    -0.80400
O2021       O  0.79324968  0.45330246  0.02606991    -0.80500
O2022       O  0.79556769  0.47441958  0.45393669    -0.80400
O2023       O  0.79683917  0.02261470  0.04559242    -0.80400
O2024       O  0.77473414  0.48687918  0.07309986    -0.80400
O2025       O  0.77818523  0.01379503  0.42771518    -0.80400
O2026       O  0.78078836  0.07224215  0.01428646    -0.80300
O2027       O  0.77380134  0.42754328  0.48753581    -0.80400
Co2028     Co  0.75543077  0.03710035  0.46489896     1.51500
Co2029     Co  0.74999057  0.46565127  0.03548734     1.51700
Co2030     Co  0.75157821  0.46551709  0.46418581     1.51600
Co2031     Co  0.75396364  0.03612675  0.03539016     1.51500
O2032       O  0.75261009  0.50097131  0.99976608    -1.42300
C2033       C  0.79977270  0.07010545  0.99078163     1.09200
C2034       C  0.79075221  0.42768312  0.01255010     1.09300
C2035       C  0.79460133  0.48850475  0.42839881     1.09300
C2036       C  0.79467094  0.50962096  0.07150860     1.09200
C2037       C  0.64725165  0.37712815  0.39846911     0.02900
C2038       C  0.62401514  0.35306759  0.39686695    -0.13300
C2039       C  0.60094226  0.35277510  0.37251999     0.00400
C2040       C  0.60142044  0.37712853  0.34940402    -0.11800
C2041       C  0.62454985  0.40151534  0.35051610     0.02900
C2042       C  0.64727352  0.40125850  0.37516565    -0.11200
H2043       H  0.62393449  0.33439408  0.41462510     0.08500
H2044       H  0.58386240  0.37708775  0.33055456     0.06000
H2045       H  0.66522758  0.41971717  0.37601899     0.05900
C2046       C  0.70085242  0.40284046  0.46738783     0.02900
C2047       C  0.72365944  0.37879795  0.46548043    -0.13300
C2048       C  0.71892437  0.35134600  0.44798655     0.00400
C2049       C  0.69274768  0.35011950  0.42698569    -0.11800
C2050       C  0.67220002  0.37657395  0.42381641     0.02900
C2051       C  0.67589738  0.40254575  0.44490819    -0.11200
H2052       H  0.74581727  0.38093236  0.47732022     0.08500
H2053       H  0.68860608  0.32892223  0.41296171     0.06000
H2054       H  0.65980730  0.42259806  0.44342689     0.05900
C2055       C  0.60044398  0.47265097  0.29903605     0.02900
C2056       C  0.60048793  0.44945697  0.32337645    -0.13300
C2057       C  0.62531912  0.42693210  0.32561317     0.00400
C2058       C  0.65098927  0.42901178  0.30400234    -0.11800
C2059       C  0.65017215  0.45096626  0.27854472     0.02900
C2060       C  0.62393851  0.47065252  0.27562591    -0.11200
H2061       H  0.58091364  0.44845286  0.34008470     0.08500
H2062       H  0.67141740  0.41361497  0.30696449     0.06000
H2063       H  0.62222302  0.48392835  0.25428685     0.05900
C2064       C  0.55573623  0.27718275  0.34885471     0.02900
C2065       C  0.57518535  0.30464929  0.34653058    -0.13300
C2066       C  0.57658396  0.32680374  0.37184937     0.00400
C2067       C  0.55543608  0.32305811  0.39765530    -0.11800
C2068       C  0.53490012  0.29662660  0.39921222     0.02900
C2069       C  0.53844468  0.27260768  0.37650826    -0.11200
H2070       H  0.58930252  0.30861161  0.32536443     0.08500
H2071       H  0.55567546  0.34014930  0.41692824     0.06000
H2072       H  0.52807045  0.24972550  0.37993300     0.05900
C2073       C  0.87353178  0.15273657  0.10036518     0.02900
C2074       C  0.89684774  0.15268415  0.12459111    -0.13300
C2075       C  0.89783208  0.12830327  0.14759729     0.00400
C2076       C  0.87490446  0.10388374  0.14613068    -0.11800
C2077       C  0.85125516  0.10352542  0.12234714     0.02900
C2078       C  0.85081833  0.12804287  0.09945896    -0.11200
H2079       H  0.91426403  0.17164515  0.12549083     0.08500
H2080       H  0.87522584  0.08518528  0.16386347     0.06000
H2081       H  0.83274115  0.12802052  0.08110438     0.05900
C2082       C  0.96241153  0.10011698  0.20515505     0.02900
C2083       C  0.95832340  0.12284283  0.22907092    -0.13300
C2084       C  0.94310360  0.15143918  0.22324517     0.00400
C2085       C  0.92442275  0.15412319  0.19531620    -0.11800
C2086       C  0.92202890  0.12831194  0.17382208     0.02900
C2087       C  0.94234574  0.10186428  0.17829528    -0.11200
H2088       H  0.46675579  0.11878164  0.25269394     0.08500
H2089       H  0.91160969  0.17594065  0.19053847     0.06000
H2090       H  0.94195109  0.08244039  0.16138789     0.05900
C2091       C  0.89991832  0.20746481  0.03292624     0.02900
C2092       C  0.87817538  0.23235808  0.03731233    -0.13300
C2093       C  0.85095455  0.22870047  0.05559867     0.00400
C2094       C  0.84861099  0.20161003  0.07546471    -0.11800
C2095       C  0.87324413  0.17875907  0.07615041     0.02900
C2096       C  0.89818920  0.18129288  0.05385831    -0.11200
H2097       H  0.88203024  0.25525215  0.02718055     0.08500
H2098       H  0.82781455  0.19834075  0.09029636     0.06000
H2099       H  0.91673983  0.16342600  0.05349961     0.05900
C2100       C  0.78420108  0.04902800  0.14995827     0.02900
C2101       C  0.80571687  0.07466483  0.14835669    -0.13300
C2102       C  0.82674420  0.07775604  0.12235049     0.00400
C2103       C  0.82473766  0.05549927  0.09719218    -0.11800
C2104       C  0.80436593  0.02876145  0.09960959     0.02900
C2105       C  0.78651917  0.02515118  0.12697098    -0.11200
H2106       H  0.80665238  0.09173087  0.16762816     0.08500
H2107       H  0.83899532  0.05890352  0.07602057     0.06000
H2108       H  0.77473014  0.50301772  0.12986057     0.05900
O2109       O  0.95946053  0.29551676  0.47433592    -0.80400
O2110       O  0.55007341  0.29136842  0.02501252    -0.80400
O2111       O  0.98117255  0.29506430  0.04547561    -0.80400
O2112       O  0.52963198  0.29094448  0.45350864    -0.80300
O2113       O  0.51673632  0.27290444  0.07315727    -0.80500
O2114       O  0.99063351  0.27312308  0.42716776    -0.80400
O2115       O  0.57604237  0.27053586  0.48704489    -0.80400
O2116       O  0.93189561  0.27861636  0.01280041    -0.80400
C2117       C  0.93370661  0.29557094  0.48781592     1.09300
C2118       C  0.57537007  0.28957822  0.51061023     1.09200
C2119       C  0.49383745  0.29263351  0.07158628     1.09300
C2120       C  0.51577640  0.28975231  0.42792880     1.09200
O2121       O  0.97465232  0.20691592  0.45448427    -0.80400
O2122       O  0.52503809  0.20489431  0.04499799    -0.80500
O2123       O  0.95425394  0.20932032  0.02553261    -0.80400
O2124       O  0.54700306  0.20334652  0.47653411    -0.80400
O2125       O  0.57457091  0.22264830  0.01404693    -0.80400
O2126       O  0.92828954  0.22994419  0.48791592    -0.80400
O2127       O  0.51447831  0.22358278  0.42830904    -0.80300
O2128       O  0.98849201  0.22601489  0.07241197    -0.80400
Co2129     Co  0.96675233  0.25114007  0.46448907     1.51500
Co2130     Co  0.53786699  0.24814986  0.03554311     1.51700
Co2131     Co  0.96739734  0.25218291  0.03565003     1.51600
Co2132     Co  0.53830386  0.24718069  0.46483844     1.51500
O2133       O  0.50250835  0.24957158  0.49991578    -1.42300
C2134       C  0.48896708  0.20739642  0.42907126     1.09200
C2135       C  0.51139106  0.20623044  0.07065601     1.09300
C2136       C  0.92841426  0.21272651  0.01269128     1.09300
C2137       C  0.57261963  0.20366627  0.99054827     1.09200
C2138       C  0.60209838  0.03774111  0.20356432     0.02900
C2139       C  0.60377125  0.05832779  0.17715857    -0.13300
C2140       C  0.63012228  0.07880171  0.17313440     0.00400
C2141       C  0.65591174  0.07628311  0.19460880    -0.11800
C2142       C  0.65339253  0.05702073  0.22209980     0.02900
C2143       C  0.62504512  0.04114928  0.22742297    -0.11200
H2144       H  0.58435338  0.05899410  0.16025019     0.08500
H2145       H  0.67757436  0.08947515  0.19016199     0.06000
H2146       H  0.62134100  0.03179875  0.25069929     0.05900
C2147       C  0.63012802  0.10319219  0.14723599     0.02900
C2148       C  0.65455635  0.10420050  0.12436448    -0.13300
C2149       C  0.65462578  0.12753506  0.10027632     0.00400
C2150       C  0.62983326  0.15019814  0.09926516    -0.11800
C2151       C  0.60521790  0.14972701  0.12204337     0.02900
C2152       C  0.60563588  0.12605600  0.14579977    -0.11200
H2153       H  0.67346527  0.08672406  0.12519839     0.08500
H2154       H  0.62975104  0.16818951  0.08082561     0.06000
H2155       H  0.58687711  0.12558172  0.16345821     0.05900
C2156       C  0.52989166  0.19570965  0.09888773     0.02900
C2157       C  0.55718028  0.17602938  0.09640975    -0.13300
C2158       C  0.57914536  0.17400120  0.12185110     0.00400
C2159       C  0.57538678  0.19476382  0.14799007    -0.11800
C2160       C  0.54917149  0.21559165  0.14960301     0.02900
C2161       C  0.52530404  0.21257988  0.12671621    -0.11200
H2162       H  0.56121875  0.16232793  0.07498525     0.08500
H2163       H  0.59234913  0.19410578  0.16736536     0.06000
H2164       H  0.50255021  0.22320469  0.13002186     0.05900
C2165       C  0.72680975  0.15265012  0.05083058     0.02900
C2166       C  0.70282726  0.15251086  0.07439668    -0.13300
C2167       C  0.68022322  0.12765166  0.07571033     0.00400
C2168       C  0.68242255  0.10249017  0.05361730    -0.11800
C2169       C  0.70518010  0.10334706  0.02900713     0.02900
C2170       C  0.72575615  0.12900842  0.02749701    -0.11200
H2171       H  0.70140452  0.17189256  0.09129705     0.08500
H2172       H  0.66658637  0.08228188  0.05568978     0.06000
H2173       H  0.74054783  0.13014990  0.50724813     0.05900
C2174       C  0.90289650  0.14647380  0.37214082     0.02900
C2175       C  0.90343009  0.12200199  0.34919929    -0.13300
C2176       C  0.88070566  0.09730662  0.34993918     0.00400
C2177       C  0.85725411  0.09733006  0.37403828    -0.11800
C2178       C  0.85616807  0.12166404  0.39709029     0.02900
C2179       C  0.87911536  0.14607659  0.39578542    -0.11200
H2180       H  0.92159883  0.12205496  0.33093955     0.08500
H2181       H  0.83984074  0.07836126  0.37482982     0.06000
H2182       H  0.87873015  0.16472262  0.41356821     0.05900
C2183       C  0.94999945  0.22120664  0.34967655     0.02900
C2184       C  0.96781241  0.22475083  0.37708422    -0.13300
C2185       C  0.96996126  0.20087902  0.40011152     0.00400
C2186       C  0.94835720  0.17530224  0.39843596    -0.11800
C2187       C  0.92742767  0.17224542  0.37232768     0.02900
C2188       C  0.92956619  0.19452088  0.34719708    -0.11200
H2189       H  0.97972061  0.24681816  0.37998046     0.08500
H2190       H  0.94731419  0.15823040  0.41769869     0.06000
H2191       H  0.91536561  0.19116107  0.32597735     0.05900
C2192       C  0.81132224  0.09837895  0.47291269     0.02900
C2193       C  0.82972008  0.09568831  0.44479786    -0.13300
C2194       C  0.83198204  0.12153569  0.42332799     0.00400
C2195       C  0.81171209  0.14799025  0.42799668    -0.11800
C2196       C  0.79194330  0.14974333  0.45507453     0.02900
C2197       C  0.79630547  0.12703185  0.47895470    -0.11200
H2198       H  0.84245466  0.07385735  0.43988195     0.08500
H2199       H  0.81197445  0.16744037  0.41111476     0.06000
H2200       H  0.78823805  0.13115659  0.50270623     0.05900
C2201       C  0.85444795  0.04260229  0.28246973     0.02900
C2202       C  0.85618422  0.06878273  0.30336878    -0.13300
C2203       C  0.88110393  0.07131594  0.32568234     0.00400
C2204       C  0.90574601  0.04845503  0.32502660    -0.11800
C2205       C  0.90342688  0.02135062  0.30516322     0.02900
C2206       C  0.87621736  0.01771375  0.28684758    -0.11200
H2207       H  0.83762549  0.08664274  0.30299756     0.08500
H2208       H  0.92651386  0.05171134  0.33990245     0.06000
H2209       H  0.87237913  0.49481178  0.27672353     0.05900
C2210       C  0.85086196  0.37122821  0.09978834     0.02900
C2211       C  0.87507733  0.34799549  0.09904792    -0.13300
C2212       C  0.89910880  0.34752166  0.12247748     0.00400
C2213       C  0.89873416  0.37065978  0.14675562    -0.11800
C2214       C  0.87483209  0.39405106  0.14806101     0.02900
C2215       C  0.85098374  0.39408158  0.12442553    -0.11200
H2216       H  0.87513985  0.33025087  0.08037370     0.08500
H2217       H  0.91717603  0.37043603  0.16475242     0.06000
H2218       H  0.83250699  0.41201873  0.12512745     0.05900
C2219       C  0.84902678  0.44694743  0.21775233     0.02900
C2220       C  0.84911471  0.42248372  0.19466839    -0.13300
C2221       C  0.87521063  0.41888671  0.17364355     0.00400
C2222       C  0.90183705  0.43918186  0.17740048    -0.11800
C2223       C  0.90068820  0.46495704  0.19894095     0.02900
C2224       C  0.87335044  0.46939747  0.21650555    -0.11200
H2225       H  0.82887791  0.40667782  0.19273679     0.08500
H2226       H  0.92309585  0.43515167  0.16344386     0.06000
H2227       H  0.87153940  0.49116887  0.22898002     0.05900
C2228       C  0.95351625  0.28031069  0.14961290     0.02900
C2229       C  0.97765786  0.28314896  0.12688716    -0.13300
C2230       C  0.97417396  0.30140414  0.09969078     0.00400
C2231       C  0.94728916  0.32154057  0.09731106    -0.11800
C2232       C  0.92474404  0.32293490  0.12222692     0.02900
C2233       C  0.92768242  0.30155450  0.14794269    -0.11200
H2234       H  0.49991758  0.27157905  0.12992330     0.08500
H2235       H  0.94404611  0.33618946  0.07637895     0.06000
H2236       H  0.91038626  0.30209053  0.16702363     0.05900
C2237       C  0.77530142  0.34949313  0.05396620     0.02900
C2238       C  0.77177237  0.37680150  0.03588056    -0.13300
C2239       C  0.79643884  0.39890024  0.03226605     0.00400
C2240       C  0.82242704  0.39704429  0.05349646    -0.11800
C2241       C  0.82500440  0.37160188  0.07530696     0.02900
C2242       C  0.80221165  0.34695562  0.07402872    -0.11200
H2243       H  0.74910849  0.38042150  0.02524598     0.08500
H2244       H  0.84010323  0.41577637  0.05368640     0.06000
H2245       H  0.80539118  0.32595146  0.08859434     0.05900
C2246       C  0.60738467  0.37274075  0.14844554     0.02900
C2247       C  0.63058370  0.39683132  0.14674887    -0.13300
C2248       C  0.65356860  0.39714346  0.12231733     0.00400
C2249       C  0.65305391  0.37278671  0.09922589    -0.11800
C2250       C  0.62998581  0.34835926  0.10044745     0.02900
C2251       C  0.60734853  0.34858094  0.12517466    -0.11200
H2252       H  0.63068843  0.41552533  0.16448188     0.08500
H2253       H  0.67054665  0.37284715  0.08031782     0.06000
H2254       H  0.58942143  0.33009955  0.12608589     0.05900
C2255       C  0.71960610  0.45321601  0.14896553     0.02900
C2256       C  0.71605272  0.47727021  0.12628869    -0.13300
C2257       C  0.69874873  0.47275130  0.09863677     0.00400
C2258       C  0.67932493  0.44526462  0.09627158    -0.11800
C2259       C  0.67793224  0.42309060  0.12158642     0.02900
C2260       C  0.69908722  0.42679409  0.14737960    -0.11200
H2261       H  0.72639804  0.50015630  0.12973585     0.08500
H2262       H  0.66519403  0.44132671  0.07510815     0.06000
H2263       H  0.69885100  0.40968187  0.16663852     0.05900
C2264       C  0.55338297  0.34709541  0.21708504     0.02900
C2265       C  0.57856594  0.34743333  0.19486288    -0.13300
C2266       C  0.58238180  0.37336970  0.17374212     0.00400
C2267       C  0.56179653  0.39981486  0.17673876    -0.11800
C2268       C  0.53541952  0.39855990  0.19748781     0.02900
C2269       C  0.53048193  0.37103978  0.21484235    -0.11200
H2270       H  0.59471039  0.32741240  0.19356127     0.08500
H2271       H  0.56604738  0.42101667  0.16275206     0.06000
H2272       H  0.50813288  0.36878794  0.22629671     0.05900
C2273       C  0.65403446  0.27723633  0.04897551     0.02900
C2274       C  0.65397677  0.30038433  0.07335137    -0.13300
C2275       C  0.62919055  0.32295726  0.07555069     0.00400
C2276       C  0.60353370  0.32091996  0.05392349    -0.11800
C2277       C  0.60435529  0.29898608  0.02845471     0.02900
C2278       C  0.63064301  0.27939127  0.02546330    -0.11200
H2279       H  0.67349865  0.30130502  0.09012966     0.08500
H2280       H  0.58308859  0.33628618  0.05691864     0.06000
H2281       H  0.63238277  0.26622031  0.50406974     0.05900
O2282       O  0.98439027  0.45416824  0.29520814    -0.80400
O2283       O  0.52026066  0.04287219  0.29616861    -0.80400
O2284       O  0.54635393  0.47977925  0.29433524    -0.80400
O2285       O  0.95756748  0.01579777  0.29713229    -0.80300
O2286       O  0.57279961  0.01768991  0.27585264    -0.80500
O2287       O  0.93061019  0.47891052  0.27704790    -0.80400
O2288       O  0.98237492  0.06958734  0.27805384    -0.80400
O2289       O  0.52116933  0.42730842  0.27477027    -0.80400
C2290       C  0.99800703  0.42850265  0.29408952     1.09300
C2291       C  0.00712602  0.06875395  0.29517595     1.09200
C2292       C  0.57214670  0.99297817  0.29305090     1.09300
C2293       C  0.93185181  0.00217946  0.29624275     1.09200
O2294       O  0.95478232  0.46791443  0.20889988    -0.80400
O2295       O  0.54765043  0.03202348  0.20900502    -0.80500
O2296       O  0.53254404  0.45281142  0.20729457    -0.80400
O2297       O  0.96824788  0.04577716  0.21065973    -0.80400
O2298       O  0.50702255  0.07267513  0.22910957    -0.80400
O2299       O  0.99415320  0.42578837  0.22688883    -0.80400
O2300       O  0.92773281  0.00583263  0.22920556    -0.80300
O2301       O  0.57464831  0.49295658  0.22689690    -0.80400
Co2302     Co  0.96945401  0.46068523  0.25194274     1.51500
Co2303     Co  0.53372224  0.03766551  0.25237469     1.51700
Co2304     Co  0.53987302  0.46652828  0.25066145     1.51600
Co2305     Co  0.96284682  0.03084722  0.25370102     1.51500
O2306       O  0.50155574  0.99911326  0.24797886    -1.42300
C2307       C  0.92936796  0.98224257  0.21013890     1.09200
C2308       C  0.57342282  0.01839056  0.21048311     1.09300
C2309       C  0.51804953  0.42739184  0.20822946     1.09300
C2310       C  0.48175781  0.07152595  0.21242264     1.09200
O2311       O  0.79500696  0.45442617  0.72415824    -0.80400
O2312       O  0.70447180  0.45830941  0.77471837    -0.80400
O2313       O  0.77342022  0.45492326  0.79521987    -0.80400
O2314       O  0.72486084  0.45874839  0.70328504    -0.80300
O2315       O  0.73777512  0.47686961  0.82293595    -0.80500
O2316       O  0.76380762  0.47670483  0.67696156    -0.80400
O2317       O  0.67835864  0.47911443  0.73685053    -0.80400
O2318       O  0.82255809  0.47149435  0.76256312    -0.80400
C2319       C  0.82076962  0.45447614  0.73762569     1.09300
C2320       C  0.67909463  0.46013668  0.76046617     1.09200
C2321       C  0.76079105  0.45727526  0.82134183     1.09300
C2322       C  0.73871025  0.46002260  0.67770104     1.09200
O2323       O  0.77950027  0.04296213  0.70428739    -0.80400
O2324       O  0.72906913  0.04485960  0.79490297    -0.80500
O2325       O  0.80007774  0.04072870  0.77520617    -0.80400
O2326       O  0.70732960  0.04632256  0.72621242    -0.80400
O2327       O  0.67976799  0.02703956  0.76372820    -0.80400
O2328       O  0.82600764  0.02010345  0.73755384    -0.80400
O2329       O  0.73977369  0.02614262  0.67807160    -0.80300
O2330       O  0.76580675  0.02390924  0.82220752    -0.80400
Co2331     Co  0.78756982  0.99877247  0.71427358     1.51500
Co2332     Co  0.71647597  0.50156590  0.78533827     1.51700
Co2333     Co  0.78701456  0.49785048  0.78540370     1.51600
Co2334     Co  0.71605957  0.00249411  0.71459835     1.51500
O2335       O  0.75184752  0.50029382  0.74970990    -1.42300
C2336       C  0.76520284  0.04243781  0.67886962     1.09200
C2337       C  0.74275941  0.04353745  0.82054239     1.09300
C2338       C  0.82590383  0.03733487  0.76230915     1.09300
C2339       C  0.68172181  0.04601494  0.74021344     1.09200
O2340       O  0.96098485  0.29636847  0.77580471    -0.80400
O2341       O  0.95496372  0.20513288  0.72675739    -0.80400
O2342       O  0.95869245  0.27496337  0.70406796    -0.80400
O2343       O  0.95761751  0.22733994  0.79566580    -0.80300
O2344       O  0.97619603  0.23577634  0.67776636    -0.80500
O2345       O  0.97964021  0.26312223  0.82315410    -0.80400
O2346       O  0.97370456  0.17759967  0.76456565    -0.80400
O2347       O  0.98036348  0.32210546  0.73723085    -0.80400
C2348       C  0.96340226  0.32196972  0.76222898     1.09300
C2349       C  0.95468206  0.17971685  0.74108779     1.09200
C2350       C  0.95974622  0.26104282  0.67846219     1.09300
C2351       C  0.95974196  0.24034682  0.82157749     1.09200
O2352       O  0.54763325  0.27162547  0.79470538    -0.80400
O2353       O  0.54292575  0.22035615  0.70382137    -0.80500
O2354       O  0.54679575  0.29291646  0.72384615    -0.80400
O2355       O  0.54331799  0.20084540  0.77436370    -0.80400
O2356       O  0.52134804  0.17444518  0.73746147    -0.80400
O2357       O  0.52924157  0.32042872  0.76205130    -0.80400
O2358       O  0.52664452  0.23505935  0.82223717    -0.80300
O2359       O  0.52563844  0.25980223  0.67754348    -0.80400
Co2360     Co  0.50429270  0.28431171  0.78543621     1.51500
Co2361     Co  0.99899980  0.21260152  0.71507700     1.51700
Co2362     Co  0.00269802  0.28410650  0.71408260     1.51600
Co2363     Co  0.50050435  0.21378920  0.78557854     1.51500
O2364       O  0.50194154  0.24882988  0.74984371    -1.42300
C2365       C  0.54612378  0.25821752  0.82053507     1.09200
C2366       C  0.54214509  0.23452499  0.67839046     1.09300
C2367       C  0.54613904  0.31882638  0.73705876     1.09300
C2368       C  0.54063690  0.17519786  0.76077175     1.09200
O2369       O  0.70679092  0.21757728  0.95924403    -0.80400
O2370       O  0.79962933  0.28226018  0.95931973    -0.80400
O2371       O  0.72186359  0.29708974  0.95770983    -0.80400
O2372       O  0.78624700  0.20406463  0.96090121    -0.80300
O2373       O  0.76014474  0.32415074  0.97746927    -0.80500
O2374       O  0.74747413  0.17711508  0.97933809    -0.80400
O2375       O  0.82665948  0.24421309  0.97945513    -0.80400
O2376       O  0.67985610  0.25671519  0.97704241    -0.80400
C2377       C  0.68103299  0.23123323  0.96068738     1.09300
C2378       C  0.82502435  0.26788609  0.96046845     1.09200
C2379       C  0.73629877  0.32253624  0.95874875     1.09300
C2380       C  0.77269509  0.17832463  0.96258765     1.09200
O2381       O  0.73420213  0.20688120  0.54643360    -0.80400
O2382       O  0.76995849  0.29552559  0.54568835    -0.80500
O2383       O  0.70810227  0.26972870  0.54462191    -0.80400
O2384       O  0.79684479  0.23408652  0.54737467    -0.80400
O2385       O  0.82378165  0.27103775  0.52738463    -0.80400
O2386       O  0.68155469  0.23200027  0.52600461    -0.80400
O2387       O  0.77211561  0.18023527  0.52827716    -0.80300
O2388       O  0.73312663  0.32236008  0.52532228    -0.80400
Co2389     Co  0.72072617  0.21206036  0.50262781     1.51500
Co2390     Co  0.78489510  0.28921528  0.00238311     1.51700
Co2391     Co  0.71453350  0.28317659  0.00100500     1.51600
Co2392     Co  0.79162420  0.21902643  0.50394167     1.51500
O2393       O  0.75287672  0.25068517  0.99822226    -1.42300
C2394       C  0.74733942  0.18099970  0.54537483     1.09200
C2395       C  0.75630187  0.32117379  0.54463885     1.09300
C2396       C  0.68223631  0.25670663  0.54319442     1.09300
C2397       C  0.82252908  0.24777234  0.54656970     1.09200
C2398       C  0.80100414  0.46945648  0.89948586     0.02900
C2399       C  0.77691582  0.46663524  0.87670073    -0.13300
C2400       C  0.78054527  0.44855669  0.84941705     0.00400
C2401       C  0.80754186  0.42855839  0.84700624    -0.11800
C2402       C  0.82999834  0.42708486  0.87201478     0.02900
C2403       C  0.82692542  0.44834156  0.89779864    -0.11200
H2404       H  0.75456174  0.47802260  0.87980685     0.08500
H2405       H  0.81088771  0.41401003  0.82602540     0.06000
H2406       H  0.84415172  0.44776491  0.91694634     0.05900
C2407       C  0.87972808  0.35587888  0.89804899     0.02900
C2408       C  0.85590901  0.37936058  0.89669807    -0.13300
C2409       C  0.85559352  0.40245695  0.87236247     0.00400
C2410       C  0.87961053  0.40186925  0.84894137    -0.11800
C2411       C  0.90373048  0.37854721  0.84970529     0.02900
C2412       C  0.90355705  0.35572940  0.87438834    -0.11200
H2413       H  0.83747434  0.37967805  0.91469575     0.08500
H2414       H  0.87959439  0.41958036  0.83023076     0.06000
H2415       H  0.92197077  0.33772813  0.87510283     0.05900
C2416       C  0.97899346  0.40021288  0.80341014     0.02900
C2417       C  0.98234775  0.37297720  0.78520098    -0.13300
C2418       C  0.95774393  0.35077428  0.78190259     0.00400
C2419       C  0.93195199  0.35258319  0.80337034    -0.11800
C2420       C  0.92950383  0.37806038  0.82515201     0.02900
C2421       C  0.95226074  0.40272366  0.82368695    -0.11200
H2422       H  0.50484387  0.36948029  0.77424521     0.08500
H2423       H  0.91431842  0.33381454  0.80373810     0.06000
H2424       H  0.94918853  0.42372522  0.83827511     0.05900
C2425       C  0.90544719  0.30312218  0.96793129     0.02900
C2426       C  0.88104703  0.28074945  0.96682243    -0.13300
C2427       C  0.85371729  0.28515934  0.94922457     0.00400
C2428       C  0.85261425  0.31087227  0.92758085    -0.11800
C2429       C  0.87929623  0.33109729  0.92371891     0.02900
C2430       C  0.90540735  0.32749235  0.94473696    -0.11200
H2431       H  0.88279898  0.25906768  0.97944612     0.09300
H2432       H  0.83135594  0.31489925  0.91361928     0.06000
H2433       H  0.92568966  0.34322912  0.94272500     0.05900
C2434       C  0.64886374  0.09961685  0.87239020     0.02900
C2435       C  0.62418695  0.09928250  0.84968135    -0.13300
C2436       C  0.59946002  0.12200538  0.85082135     0.00400
C2437       C  0.59964070  0.14524509  0.87499484    -0.11800
C2438       C  0.62412960  0.14611829  0.89781906     0.02900
C2439       C  0.64855104  0.12318373  0.89625863    -0.11200
H2440       H  0.62420028  0.08137988  0.83115785     0.08500
H2441       H  0.58079644  0.16278696  0.87590210     0.06000
H2442       H  0.66736356  0.12355676  0.91386504     0.05900
C2443       C  0.65231020  0.21186342  0.95383457     0.02900
C2444       C  0.62926910  0.20871910  0.97764284    -0.13300
C2445       C  0.60097375  0.19268374  0.97246613     0.00400
C2446       C  0.59849961  0.17319043  0.94515232    -0.11800
C2447       C  0.62428981  0.17052832  0.92370775     0.02900
C2448       C  0.65066945  0.19100950  0.92762083    -0.11200
H2449       H  0.63289055  0.21833661  0.00081221     0.08500
H2450       H  0.57684896  0.15994607  0.94080360     0.06000
H2451       H  0.67010648  0.19018755  0.91074544     0.05900
C2452       C  0.70507387  0.03377741  0.89954176     0.02900
C2453       C  0.67877490  0.05448647  0.89800908    -0.13300
C2454       C  0.67492886  0.07534153  0.87197135     0.00400
C2455       C  0.69685486  0.07346539  0.84647787    -0.11800
C2456       C  0.72421549  0.05385521  0.84883999     0.02900
C2457       C  0.72889833  0.03691179  0.87662061    -0.11200
H2458       H  0.66184986  0.05503637  0.91741853     0.08500
H2459       H  0.69275281  0.08725854  0.82512222     0.06000
H2460       H  0.75170847  0.02638566  0.87989852     0.05900
C2461       C  0.54928422  0.14649695  0.77936757     0.02900
C2462       C  0.57177700  0.14736778  0.80423363    -0.13300
C2463       C  0.57389732  0.12208951  0.82621508     0.00400
C2464       C  0.55136110  0.09719067  0.82462225    -0.11800
C2465       C  0.52761094  0.09707403  0.80082833     0.02900
C2466       C  0.52890747  0.12070949  0.77749977    -0.11200
H2467       H  0.58752043  0.16762383  0.80653525     0.08500
H2468       H  0.55268525  0.07774271  0.84145867     0.06000
H2469       H  0.51448477  0.11947073  0.75698003     0.05900
O2470       O  0.71150612  0.02919886  0.95373871    -0.80400
O2471       O  0.70667566  0.47860948  0.54449535    -0.80400
O2472       O  0.70744447  0.45701651  0.97413048    -0.80400
O2473       O  0.71116495  0.04901469  0.52404131    -0.80300
O2474       O  0.72493069  0.42950008  0.51233777    -0.80500
O2475       O  0.73314784  0.07537669  0.98713683    -0.80400
O2476       O  0.72778601  0.01498441  0.57211354    -0.80400
O2477       O  0.72873611  0.48967958  0.92752700    -0.80400
C2478       C  0.71222694  0.01494767  0.92834683     1.09300
C2479       C  0.70825139  0.99187905  0.57037665     1.09200
C2480       C  0.70802854  0.43111370  0.48735882     1.09300
C2481       C  0.71384734  0.07465167  0.51042685     1.09200
O2482       O  0.79947678  0.04468046  0.97646939    -0.80400
O2483       O  0.79324965  0.45330243  0.52607002    -0.80500
O2484       O  0.79556762  0.47441960  0.95393668    -0.80400
O2485       O  0.79683917  0.02261478  0.54559242    -0.80400
O2486       O  0.77473408  0.48687920  0.57309993    -0.80400
O2487       O  0.77818527  0.01379502  0.92771521    -0.80400
O2488       O  0.78078837  0.07224221  0.51428652    -0.80300
O2489       O  0.77380129  0.42754327  0.98753583    -0.80400
Co2490     Co  0.75543077  0.03710037  0.96489895     1.51500
Co2491     Co  0.74999053  0.46565128  0.53548740     1.51700
Co2492     Co  0.75157816  0.46551707  0.96418580     1.51600
Co2493     Co  0.75396365  0.03612676  0.53539023     1.51500
O2494       O  0.75261004  0.50097132  0.49976615    -1.42300
C2495       C  0.79977268  0.07010547  0.49078165     1.09200
C2496       C  0.79075217  0.42768311  0.51255016     1.09300
C2497       C  0.79460119  0.48850476  0.92839880     1.09300
C2498       C  0.79467089  0.50962094  0.57150864     1.09200
C2499       C  0.64725165  0.37712819  0.89846911     0.02900
C2500       C  0.62401511  0.35306761  0.89686698    -0.13300
C2501       C  0.60094224  0.35277513  0.87251997     0.00400
C2502       C  0.60142050  0.37712859  0.84940408    -0.11800
C2503       C  0.62454986  0.40151544  0.85051613     0.02900
C2504       C  0.64727346  0.40125853  0.87516572    -0.11200
H2505       H  0.62393448  0.33439408  0.91462510     0.08500
H2506       H  0.58386222  0.37708788  0.83055449     0.06000
H2507       H  0.66522796  0.41971726  0.87601903     0.05900
C2508       C  0.70085231  0.40284044  0.96738781     0.02900
C2509       C  0.72365935  0.37879790  0.96548052    -0.13300
C2510       C  0.71892426  0.35134596  0.94798647     0.00400
C2511       C  0.69274753  0.35011943  0.92698576    -0.11800
C2512       C  0.67219992  0.37657386  0.92381642     0.02900
C2513       C  0.67589728  0.40254567  0.94490825    -0.11200
H2514       H  0.74581700  0.38093238  0.97731990     0.08500
H2515       H  0.68860603  0.32892210  0.91296140     0.06000
H2516       H  0.65980733  0.42259812  0.94342671     0.05900
C2517       C  0.60044398  0.47265098  0.79903635     0.02900
C2518       C  0.60048781  0.44945702  0.82337660    -0.13300
C2519       C  0.62531905  0.42693215  0.82561331     0.00400
C2520       C  0.65098934  0.42901176  0.80400257    -0.11800
C2521       C  0.65017228  0.45096613  0.77854500     0.02900
C2522       C  0.62393857  0.47065256  0.77562604    -0.11200
H2523       H  0.58091313  0.44845270  0.84008453     0.08500
H2524       H  0.67141744  0.41361499  0.80696489     0.06000
H2525       H  0.62222322  0.48392779  0.75428794     0.05900
C2526       C  0.55573618  0.27718276  0.84885479     0.02900
C2527       C  0.57518528  0.30464930  0.84653066    -0.13300
C2528       C  0.57658386  0.32680383  0.87184945     0.00400
C2529       C  0.55543608  0.32305810  0.89765537    -0.11800
C2530       C  0.53490016  0.29662664  0.89921235     0.02900
C2531       C  0.53844463  0.27260776  0.87650832    -0.11200
H2532       H  0.58930236  0.30861164  0.82536451     0.08500
H2533       H  0.55567563  0.34014941  0.91692867     0.06000
H2534       H  0.52807034  0.24972560  0.87993304     0.05900
C2535       C  0.87353170  0.15273652  0.60036506     0.02900
C2536       C  0.89684766  0.15268419  0.62459101    -0.13300
C2537       C  0.89783207  0.12830322  0.64759726     0.00400
C2538       C  0.87490449  0.10388371  0.64613063    -0.11800
C2539       C  0.85125518  0.10352545  0.62234709     0.02900
C2540       C  0.85081828  0.12804294  0.59945895    -0.11200
H2541       H  0.91426361  0.17164499  0.62549052     0.08500
H2542       H  0.87522567  0.08518527  0.66386345     0.06000
H2543       H  0.83274111  0.12802057  0.58110429     0.05900
C2544       C  0.96241170  0.10011700  0.70515502     0.02900
C2545       C  0.95832365  0.12284279  0.72907086    -0.13300
C2546       C  0.94310383  0.15143909  0.72324515     0.00400
C2547       C  0.92442293  0.15412313  0.69531618    -0.11800
C2548       C  0.92202902  0.12831193  0.67382207     0.02900
C2549       C  0.94234590  0.10186425  0.67829523    -0.11200
H2550       H  0.46675572  0.11878171  0.75269375     0.08500
H2551       H  0.91161012  0.17594057  0.69053846     0.06000
H2552       H  0.94195152  0.08244070  0.66138791     0.05900
C2553       C  0.89991827  0.20746486  0.53292630     0.02900
C2554       C  0.87817539  0.23235821  0.53731241    -0.13300
C2555       C  0.85095447  0.22870043  0.55559866     0.00400
C2556       C  0.84861090  0.20161013  0.57546477    -0.11800
C2557       C  0.87324407  0.17875919  0.57615046     0.02900
C2558       C  0.89818923  0.18129295  0.55385838    -0.11200
H2559       H  0.88203004  0.25525179  0.52718083     0.08500
H2560       H  0.82781440  0.19834083  0.59029622     0.06000
H2561       H  0.91673977  0.16342633  0.55349976     0.05900
C2562       C  0.78420123  0.04902771  0.64995827     0.02900
C2563       C  0.80571696  0.07466471  0.64835658    -0.13300
C2564       C  0.82674431  0.07775600  0.62235038     0.00400
C2565       C  0.82473771  0.05549926  0.59719213    -0.11800
C2566       C  0.80436607  0.02876130  0.59960953     0.02900
C2567       C  0.78651947  0.02515104  0.62697097    -0.11200
H2568       H  0.80665259  0.09173078  0.66762810     0.08500
H2569       H  0.83899564  0.05890354  0.57602039     0.06000
H2570       H  0.77472977  0.50301728  0.62986059     0.05900
O2571       O  0.95946052  0.29551656  0.97433590    -0.80400
O2572       O  0.55007331  0.29136860  0.52501253    -0.80400
O2573       O  0.98117245  0.29506435  0.54547575    -0.80400
O2574       O  0.52963202  0.29094435  0.95350863    -0.80300
O2575       O  0.51673642  0.27290450  0.57315716    -0.80500
O2576       O  0.99063344  0.27312302  0.92716780    -0.80400
O2577       O  0.57604228  0.27053557  0.98704487    -0.80400
O2578       O  0.93189565  0.27861642  0.51280044    -0.80400
C2579       C  0.93370657  0.29557072  0.98781582     1.09300
C2580       C  0.57537011  0.28957790  0.01061023     1.09200
C2581       C  0.49383745  0.29263345  0.57158625     1.09300
C2582       C  0.51577642  0.28975224  0.92792882     1.09200
O2583       O  0.97465232  0.20691575  0.95448424    -0.80400
O2584       O  0.52503832  0.20489450  0.54499793    -0.80500
O2585       O  0.95425393  0.20932033  0.52553253    -0.80400
O2586       O  0.54700301  0.20334636  0.97653414    -0.80400
O2587       O  0.57457102  0.22264846  0.51404692    -0.80400
O2588       O  0.92828954  0.22994406  0.98791589    -0.80400
O2589       O  0.51447829  0.22358273  0.92830893    -0.80300
O2590       O  0.98849205  0.22601492  0.57241194    -0.80400
Co2591     Co  0.96675232  0.25113994  0.96448909     1.51500
Co2592     Co  0.53786705  0.24815000  0.53554304     1.51700
Co2593     Co  0.96739737  0.25218293  0.53565001     1.51600
Co2594     Co  0.53830381  0.24718053  0.96483842     1.51500
O2595       O  0.50250835  0.24957144  0.99991580    -1.42300
C2596       C  0.48896709  0.20739639  0.92907116     1.09200
C2597       C  0.51139122  0.20623053  0.57065590     1.09300
C2598       C  0.92841421  0.21272667  0.51269132     1.09300
C2599       C  0.57261965  0.20366640  0.49054828     1.09200
C2600       C  0.60209841  0.03774104  0.70356420     0.02900
C2601       C  0.60377124  0.05832775  0.67715851    -0.13300
C2602       C  0.63012224  0.07880174  0.67313435     0.00400
C2603       C  0.65591175  0.07628318  0.69460873    -0.11800
C2604       C  0.65339256  0.05702082  0.72209967     0.02900
C2605       C  0.62504519  0.04114924  0.72742287    -0.11200
H2606       H  0.58435333  0.05899404  0.66025008     0.08500
H2607       H  0.67757436  0.08947523  0.69016191     0.06000
H2608       H  0.62134115  0.03179892  0.75069894     0.05900
C2609       C  0.63012798  0.10319219  0.64723595     0.02900
C2610       C  0.65455630  0.10420049  0.62436444    -0.13300
C2611       C  0.65462571  0.12753502  0.60027627     0.00400
C2612       C  0.62983323  0.15019813  0.59926512    -0.11800
C2613       C  0.60521789  0.14972703  0.62204335     0.02900
C2614       C  0.60563584  0.12605600  0.64579972    -0.11200
H2615       H  0.67346521  0.08672406  0.62519835     0.08500
H2616       H  0.62975101  0.16818950  0.58082556     0.06000
H2617       H  0.58687706  0.12558173  0.66345816     0.05900
C2618       C  0.52989168  0.19570967  0.59888770     0.02900
C2619       C  0.55718028  0.17602940  0.59640976    -0.13300
C2620       C  0.57914537  0.17400124  0.62185113     0.00400
C2621       C  0.57538679  0.19476384  0.64799007    -0.11800
C2622       C  0.54917149  0.21559168  0.64960296     0.02900
C2623       C  0.52530404  0.21257985  0.62671616    -0.11200
H2624       H  0.56121901  0.16232839  0.57498519     0.08500
H2625       H  0.59234916  0.19410576  0.66736538     0.06000
H2626       H  0.50255025  0.22320466  0.63002176     0.05900
C2627       C  0.72680970  0.15265007  0.55083045     0.02900
C2628       C  0.70282718  0.15251077  0.57439657    -0.13300
C2629       C  0.68022312  0.12765155  0.57571027     0.00400
C2630       C  0.68242252  0.10249017  0.55361726    -0.11800
C2631       C  0.70518006  0.10334698  0.52900708     0.02900
C2632       C  0.72575603  0.12900839  0.52749697    -0.11200
H2633       H  0.70140440  0.17189247  0.59129693     0.08500
H2634       H  0.66658628  0.08228146  0.55568994     0.06000
H2635       H  0.74054740  0.13014996  0.00724853     0.05900
C2636       C  0.90289647  0.14647381  0.87214078     0.02900
C2637       C  0.90343010  0.12200204  0.84919922    -0.13300
C2638       C  0.88070572  0.09730660  0.84993915     0.00400
C2639       C  0.85725413  0.09733001  0.87403832    -0.11800
C2640       C  0.85616801  0.12166406  0.89709027     0.02900
C2641       C  0.87911529  0.14607664  0.89578540    -0.11200
H2642       H  0.92159887  0.12205508  0.83093943     0.08500
H2643       H  0.83984082  0.07836117  0.87482997     0.06000
H2644       H  0.87873009  0.16472267  0.91356810     0.05900
C2645       C  0.94999950  0.22120669  0.84967650     0.02900
C2646       C  0.96781237  0.22475081  0.87708417    -0.13300
C2647       C  0.96996130  0.20087904  0.90011145     0.00400
C2648       C  0.94835714  0.17530228  0.89843587    -0.11800
C2649       C  0.92742762  0.17224549  0.87232762     0.02900
C2650       C  0.92956618  0.19452098  0.84719704    -0.11200
H2651       H  0.97972092  0.24681837  0.87998038     0.08500
H2652       H  0.94731384  0.15823049  0.91769866     0.06000
H2653       H  0.91536557  0.19116125  0.82597734     0.05900
C2654       C  0.81132227  0.09837887  0.97291258     0.02900
C2655       C  0.82972013  0.09568823  0.94479775    -0.13300
C2656       C  0.83198209  0.12153564  0.92332802     0.00400
C2657       C  0.81171209  0.14799027  0.92799668    -0.11800
C2658       C  0.79194331  0.14974327  0.95507454     0.02900
C2659       C  0.79630543  0.12703183  0.97895468    -0.11200
H2660       H  0.84245471  0.07385720  0.93988160     0.08500
H2661       H  0.81197444  0.16744027  0.91111513     0.06000
H2662       H  0.78823793  0.13115644  0.00270582     0.05900
C2663       C  0.85444816  0.04260223  0.78246962     0.02900
C2664       C  0.85618438  0.06878265  0.80336873    -0.13300
C2665       C  0.88110412  0.07131587  0.82568234     0.00400
C2666       C  0.90574617  0.04845505  0.82502660    -0.11800
C2667       C  0.90342703  0.02135066  0.80516318     0.02900
C2668       C  0.87621751  0.01771375  0.78684752    -0.11200
H2669       H  0.83762603  0.08664257  0.80299724     0.08500
H2670       H  0.92651405  0.05171145  0.83990249     0.06000
H2671       H  0.87237917  0.49481168  0.77672337     0.05900
C2672       C  0.85086188  0.37122838  0.59978835     0.02900
C2673       C  0.87507723  0.34799549  0.59904793    -0.13300
C2674       C  0.89910866  0.34752173  0.62247746     0.00400
C2675       C  0.89873400  0.37065989  0.64675563    -0.11800
C2676       C  0.87483179  0.39405122  0.64806096     0.02900
C2677       C  0.85098356  0.39408173  0.62442552    -0.11200
H2678       H  0.87513949  0.33025079  0.58037409     0.08500
H2679       H  0.91717545  0.37043620  0.66475197     0.06000
H2680       H  0.83250656  0.41201898  0.62512742     0.05900
C2681       C  0.84902680  0.44694770  0.71775234     0.02900
C2682       C  0.84911473  0.42248388  0.69466848    -0.13300
C2683       C  0.87521063  0.41888681  0.67364361     0.00400
C2684       C  0.90183703  0.43918192  0.67740050    -0.11800
C2685       C  0.90068824  0.46495716  0.69894095     0.02900
C2686       C  0.87335045  0.46939760  0.71650541    -0.11200
H2687       H  0.82887809  0.40667783  0.69273721     0.08500
H2688       H  0.92309588  0.43515172  0.66344362     0.06000
H2689       H  0.87153921  0.49116979  0.72898004     0.05900
C2690       C  0.95351607  0.28031063  0.64961310     0.02900
C2691       C  0.97765781  0.28314898  0.62688732    -0.13300
C2692       C  0.97417397  0.30140409  0.59969103     0.00400
C2693       C  0.94728914  0.32154057  0.59731134    -0.11800
C2694       C  0.92474392  0.32293488  0.62222733     0.02900
C2695       C  0.92768231  0.30155447  0.64794291    -0.11200
H2696       H  0.49991747  0.27157914  0.62992319     0.08500
H2697       H  0.94404642  0.33618951  0.57637974     0.06000
H2698       H  0.91038571  0.30209049  0.66702424     0.05900
C2699       C  0.77530156  0.34949312  0.55396625     0.02900
C2700       C  0.77177253  0.37680148  0.53588051    -0.13300
C2701       C  0.79643898  0.39890017  0.53226604     0.00400
C2702       C  0.82242714  0.39704429  0.55349642    -0.11800
C2703       C  0.82500437  0.37160186  0.57530701     0.02900
C2704       C  0.80221169  0.34695561  0.57402875    -0.11200
H2705       H  0.74910907  0.38042147  0.52524615     0.08500
H2706       H  0.84010299  0.41577624  0.55368634     0.06000
H2707       H  0.80539123  0.32595137  0.58859443     0.05900
C2708       C  0.60738472  0.37274082  0.64844562     0.02900
C2709       C  0.63058374  0.39683146  0.64674889    -0.13300
C2710       C  0.65356866  0.39714350  0.62231734     0.00400
C2711       C  0.65305385  0.37278676  0.59922586    -0.11800
C2712       C  0.62998576  0.34835932  0.60044744     0.02900
C2713       C  0.60734854  0.34858103  0.62517467    -0.11200
H2714       H  0.63068876  0.41552532  0.66448196     0.08500
H2715       H  0.67054653  0.37284720  0.58031767     0.06000
H2716       H  0.58942147  0.33009950  0.62608593     0.05900
C2717       C  0.71960608  0.45321612  0.64896556     0.02900
C2718       C  0.71605250  0.47727031  0.62628882    -0.13300
C2719       C  0.69874863  0.47275146  0.59863692     0.00400
C2720       C  0.67932487  0.44526467  0.59627162    -0.11800
C2721       C  0.67793234  0.42309064  0.62158650     0.02900
C2722       C  0.69908730  0.42679418  0.64737960    -0.11200
H2723       H  0.72639786  0.50015669  0.62973619     0.08500
H2724       H  0.66519408  0.44132661  0.57510850     0.06000
H2725       H  0.69885124  0.40968183  0.66663853     0.05900
C2726       C  0.55338281  0.34709559  0.71708509     0.02900
C2727       C  0.57856578  0.34743359  0.69486284    -0.13300
C2728       C  0.58238170  0.37337002  0.67374208     0.00400
C2729       C  0.56179645  0.39981505  0.67673879    -0.11800
C2730       C  0.53541945  0.39856015  0.69748786     0.02900
C2731       C  0.53048189  0.37103990  0.71484222    -0.11200
H2732       H  0.59471011  0.32741268  0.69356108     0.08500
H2733       H  0.56604736  0.42101731  0.66275167     0.06000
H2734       H  0.50813233  0.36878814  0.72629737     0.05900
C2735       C  0.65403452  0.27723656  0.54897557     0.02900
C2736       C  0.65397674  0.30038452  0.57335140    -0.13300
C2737       C  0.62919044  0.32295740  0.57555070     0.00400
C2738       C  0.60353365  0.32092018  0.55392352    -0.11800
C2739       C  0.60435525  0.29898642  0.52845477     0.02900
C2740       C  0.63064310  0.27939152  0.52546331    -0.11200
H2741       H  0.67349865  0.30130544  0.59012964     0.08500
H2742       H  0.58308846  0.33628670  0.55691865     0.06000
H2743       H  0.63238263  0.26621995  0.00406944     0.05900
O2744       O  0.98439026  0.45416825  0.79520828    -0.80400
O2745       O  0.52026077  0.04287214  0.79616850    -0.80400
O2746       O  0.54635387  0.47977945  0.79433545    -0.80400
O2747       O  0.95756760  0.01579776  0.79713224    -0.80300
O2748       O  0.57279963  0.01768980  0.77585252    -0.80500
O2749       O  0.93061011  0.47891052  0.77704802    -0.80400
O2750       O  0.98237508  0.06958731  0.77805377    -0.80400
O2751       O  0.52116935  0.42730855  0.77477032    -0.80400
C2752       C  0.99800709  0.42850269  0.79408960     1.09300
C2753       C  0.00712617  0.06875390  0.79517588     1.09200
C2754       C  0.57214676  0.99297815  0.79305089     1.09300
C2755       C  0.93185195  0.00217947  0.79624270     1.09200
O2756       O  0.95478232  0.46791434  0.70890005    -0.80400
O2757       O  0.54765042  0.03202323  0.70900495    -0.80500
O2758       O  0.53254406  0.45281153  0.70729473    -0.80400
O2759       O  0.96824802  0.04577716  0.71065965    -0.80400
O2760       O  0.50702270  0.07267501  0.72910952    -0.80400
O2761       O  0.99415323  0.42578849  0.72688889    -0.80400
O2762       O  0.92773284  0.00583263  0.72920551    -0.80300
O2763       O  0.57464828  0.49295659  0.72689700    -0.80400
Co2764     Co  0.96945399  0.46068524  0.75194287     1.51500
Co2765     Co  0.53372227  0.03766534  0.75237456     1.51700
Co2766     Co  0.53987299  0.46652840  0.75066161     1.51600
Co2767     Co  0.96284691  0.03084719  0.75370095     1.51500
O2768       O  0.50155566  0.99911311  0.74797872    -1.42300
C2769       C  0.92936804  0.98224254  0.71013890     1.09200
C2770       C  0.57342288  0.01839042  0.71048314     1.09300
C2771       C  0.51804949  0.42739200  0.70822953     1.09300
C2772       C  0.48175798  0.07152587  0.71242254     1.09200
O2773       O  0.79500726  0.95442601  0.22415867    -0.80400
O2774       O  0.70447202  0.95830912  0.27471836    -0.80400
O2775       O  0.77342082  0.95492309  0.29522021    -0.80400
O2776       O  0.72486115  0.95874836  0.20328521    -0.80300
O2777       O  0.73777557  0.97686938  0.32293627    -0.80500
O2778       O  0.76380799  0.97670448  0.17696171    -0.80400
O2779       O  0.67835899  0.97911441  0.23685047    -0.80400
O2780       O  0.82255849  0.97149436  0.26256343    -0.80400
C2781       C  0.82076994  0.95447600  0.23762611     1.09300
C2782       C  0.67909487  0.96013664  0.26046608     1.09200
C2783       C  0.76079163  0.95727518  0.32134218     1.09300
C2784       C  0.73871054  0.96002237  0.17770120     1.09200
O2785       O  0.77949956  0.54296250  0.20428744    -0.80400
O2786       O  0.72906904  0.54485992  0.29490262    -0.80500
O2787       O  0.80007771  0.54072865  0.27520611    -0.80400
O2788       O  0.70732908  0.54632273  0.22621216    -0.80400
O2789       O  0.67976772  0.52703982  0.26372806    -0.80400
O2790       O  0.82600740  0.52010350  0.23755354    -0.80400
O2791       O  0.73977299  0.52614294  0.17807149    -0.80300
O2792       O  0.76580635  0.52390929  0.32220723    -0.80400
Co2793     Co  0.78756943  0.49877281  0.21427336     1.51500
Co2794     Co  0.71647623  0.00156558  0.28533855     1.51700
Co2795     Co  0.78701493  0.99785045  0.28540398     1.51600
Co2796     Co  0.71605905  0.50249424  0.21459820     1.51500
O2797       O  0.75184788  0.00029365  0.24971026    -1.42300
C2798       C  0.76520210  0.54243822  0.17886964     1.09200
C2799       C  0.74275910  0.54353759  0.32054212     1.09300
C2800       C  0.82590377  0.53733481  0.26230895     1.09300
C2801       C  0.68172142  0.54601524  0.24021331     1.09200
O2802       O  0.96098439  0.79636886  0.27580435    -0.80400
O2803       O  0.95496377  0.70513293  0.22675728    -0.80400
O2804       O  0.95869227  0.77496333  0.20406792    -0.80400
O2805       O  0.95761730  0.72734061  0.29566547    -0.80300
O2806       O  0.97619603  0.73577634  0.17776649    -0.80500
O2807       O  0.97963991  0.76312283  0.32315398    -0.80400
O2808       O  0.97370440  0.67759992  0.26456579    -0.80400
O2809       O  0.98036306  0.82210569  0.23723042    -0.80400
C2810       C  0.96340174  0.82197005  0.26222850     1.09300
C2811       C  0.95468209  0.67971696  0.24108777     1.09200
C2812       C  0.95974618  0.76104278  0.17846219     1.09300
C2813       C  0.95974181  0.74034727  0.32157727     1.09200
O2814       O  0.54763321  0.77162585  0.29470509    -0.80400
O2815       O  0.54292579  0.72035599  0.20382097    -0.80500
O2816       O  0.54679548  0.79291658  0.22384570    -0.80400
O2817       O  0.54331809  0.70084548  0.27436369    -0.80400
O2818       O  0.52134816  0.67444509  0.23746161    -0.80400
O2819       O  0.52924130  0.82042878  0.26205076    -0.80400
O2820       O  0.52664471  0.73505950  0.32223683    -0.80300
O2821       O  0.52563829  0.75980205  0.17754314    -0.80400
Co2822     Co  0.50429264  0.78431185  0.28543589     1.51500
Co2823     Co  0.99899984  0.71260167  0.21507712     1.51700
Co2824     Co  0.00269782  0.78410668  0.21408246     1.51600
Co2825     Co  0.50050438  0.71378936  0.28557835     1.51500
O2826       O  0.50194163  0.74882990  0.24984343    -1.42300
C2827       C  0.54612394  0.75821768  0.32053467     1.09200
C2828       C  0.54214498  0.73452483  0.17839006     1.09300
C2829       C  0.54613854  0.81882656  0.23705811     1.09300
C2830       C  0.54063693  0.67519784  0.26077196     1.09200
O2831       O  0.70679119  0.71757725  0.45924379    -0.80400
O2832       O  0.79962980  0.78226050  0.45932001    -0.80400
O2833       O  0.72186364  0.79708964  0.45771001    -0.80400
O2834       O  0.78624727  0.70406477  0.46090112    -0.80300
O2835       O  0.76014471  0.82415075  0.47746943    -0.80500
O2836       O  0.74747449  0.67711509  0.47933793    -0.80400
O2837       O  0.82665979  0.74421322  0.47945517    -0.80400
O2838       O  0.67985635  0.75671502  0.47704235    -0.80400
C2839       C  0.68103323  0.73123312  0.46068725     1.09300
C2840       C  0.82502476  0.76788626  0.46046857     1.09200
C2841       C  0.73629868  0.82253620  0.45874894     1.09300
C2842       C  0.77269545  0.67832472  0.46258749     1.09200
O2843       O  0.73420226  0.70688119  0.04643344    -0.80400
O2844       O  0.76995864  0.79552541  0.04568858    -0.80500
O2845       O  0.70810237  0.76972830  0.04462194    -0.80400
O2846       O  0.79684505  0.73408652  0.04737470    -0.80400
O2847       O  0.82378193  0.77103772  0.02738485    -0.80400
O2848       O  0.68155478  0.73200001  0.02600448    -0.80400
O2849       O  0.77211575  0.68023537  0.02827712    -0.80300
O2850       O  0.73312661  0.82235980  0.02532257    -0.80400
Co2851     Co  0.72072640  0.71206029  0.00262768     1.51500
Co2852     Co  0.78489531  0.78921534  0.50238327     1.51700
Co2853     Co  0.71453367  0.78317636  0.50100513     1.51600
Co2854     Co  0.79162452  0.71902647  0.00394168     1.51500
O2855       O  0.75287699  0.75068509  0.49822225    -1.42300
C2856       C  0.74733954  0.68099974  0.04537475     1.09200
C2857       C  0.75630191  0.82117356  0.04463912     1.09300
C2858       C  0.68223635  0.75670639  0.04319425     1.09300
C2859       C  0.82252939  0.74777227  0.04656983     1.09200
C2860       C  0.80100444  0.96945664  0.39948633     0.02900
C2861       C  0.77691633  0.96663548  0.37670104    -0.13300
C2862       C  0.78054579  0.94855669  0.34941740     0.00400
C2863       C  0.80754231  0.92855839  0.34700690    -0.11800
C2864       C  0.82999875  0.92708489  0.37201540     0.02900
C2865       C  0.82692563  0.94834166  0.39779928    -0.11200
H2866       H  0.75456239  0.97802317  0.37980702     0.08500
H2867       H  0.81088829  0.91400950  0.32602573     0.06000
H2868       H  0.84415174  0.94776498  0.41694723     0.05900
C2869       C  0.87972891  0.85587912  0.39804972     0.02900
C2870       C  0.85590986  0.87936088  0.39669911    -0.13300
C2871       C  0.85559400  0.90245704  0.37236327     0.00400
C2872       C  0.87961074  0.90186925  0.34894184    -0.11800
C2873       C  0.90373069  0.87854721  0.34970561     0.02900
C2874       C  0.90355761  0.85572957  0.37438879    -0.11200
H2875       H  0.83747564  0.87967858  0.41469725     0.08500
H2876       H  0.87959418  0.91957984  0.33023089     0.06000
H2877       H  0.92197134  0.83772822  0.37510310     0.05900
C2878       C  0.97899292  0.90021329  0.30340967     0.02900
C2879       C  0.98234707  0.87297784  0.28520011    -0.13300
C2880       C  0.95774334  0.85077473  0.28190205     0.00400
C2881       C  0.93195168  0.85258343  0.30337019    -0.11800
C2882       C  0.92950375  0.87806050  0.32515203     0.02900
C2883       C  0.95226054  0.90272391  0.32368689    -0.11200
H2884       H  0.50484429  0.86948042  0.27424429     0.08500
H2885       H  0.91431815  0.83381490  0.30373801     0.06000
H2886       H  0.94918872  0.92372505  0.33827533     0.05900
C2887       C  0.90544800  0.80312171  0.46793145     0.02900
C2888       C  0.88104762  0.78074909  0.46682245    -0.13300
C2889       C  0.85371782  0.78515934  0.44922479     0.00400
C2890       C  0.85261498  0.81087247  0.42758140    -0.11800
C2891       C  0.87929706  0.83109741  0.42371946     0.02900
C2892       C  0.90540821  0.82749215  0.44473737    -0.11200
H2893       H  0.88279946  0.75906688  0.47944592     0.09300
H2894       H  0.83135635  0.81489962  0.41361992     0.06000
H2895       H  0.92569097  0.84322880  0.44272517     0.05900
C2896       C  0.64886337  0.59961623  0.37239046     0.02900
C2897       C  0.62418641  0.59928215  0.34968169    -0.13300
C2898       C  0.59945972  0.62200524  0.35082178     0.00400
C2899       C  0.59964059  0.64524465  0.37499548    -0.11800
C2900       C  0.62412968  0.64611758  0.39781965     0.02900
C2901       C  0.64855088  0.62318283  0.39625908    -0.11200
H2902       H  0.62419963  0.58137972  0.33115806     0.08500
H2903       H  0.58079630  0.66278645  0.37590307     0.06000
H2904       H  0.66736403  0.62355604  0.41386529     0.05900
C2905       C  0.65231051  0.71186304  0.45383493     0.02900
C2906       C  0.62926935  0.70871887  0.47764305    -0.13300
C2907       C  0.60097402  0.69268348  0.47246662     0.00400
C2908       C  0.59849989  0.67318986  0.44515295    -0.11800
C2909       C  0.62429006  0.67052759  0.42370839     0.02900
C2910       C  0.65066974  0.69100880  0.42762134    -0.11200
H2911       H  0.63289093  0.71833705  0.50081302     0.08500
H2912       H  0.57684905  0.65994559  0.44080398     0.06000
H2913       H  0.67010699  0.69018644  0.41074616     0.05900
C2914       C  0.70507369  0.53377675  0.39954149     0.02900
C2915       C  0.67877455  0.55448566  0.39800887    -0.13300
C2916       C  0.67492832  0.57534082  0.37197111     0.00400
C2917       C  0.69685406  0.57346480  0.34647761    -0.11800
C2918       C  0.72421486  0.55385487  0.34883964     0.02900
C2919       C  0.72889788  0.53691129  0.37662023    -0.11200
H2920       H  0.66184979  0.55503552  0.41741819     0.08500
H2921       H  0.69275163  0.58725816  0.32512170     0.06000
H2922       H  0.75170830  0.52638514  0.37989807     0.05900
C2923       C  0.54928398  0.64649696  0.27936800     0.02900
C2924       C  0.57177663  0.64736788  0.30423417    -0.13300
C2925       C  0.57389687  0.62208953  0.32621567     0.00400
C2926       C  0.55136075  0.59719068  0.32462271    -0.11800
C2927       C  0.52761074  0.59707401  0.30082871     0.02900
C2928       C  0.52890734  0.62070948  0.27750014    -0.11200
H2929       H  0.58752007  0.66762382  0.30653567     0.08500
H2930       H  0.55268476  0.57774256  0.34145946     0.06000
H2931       H  0.51448478  0.61947051  0.25697999     0.05900
O2932       O  0.71150644  0.52919886  0.45373847    -0.80400
O2933       O  0.70667562  0.97860936  0.04449570    -0.80400
O2934       O  0.70744426  0.95701638  0.47413019    -0.80400
O2935       O  0.71116521  0.54901476  0.02404072    -0.80300
O2936       O  0.72493038  0.92950017  0.01233780    -0.80500
O2937       O  0.73314826  0.57537685  0.48713647    -0.80400
O2938       O  0.72778589  0.51498462  0.07211307    -0.80400
O2939       O  0.72873618  0.98967978  0.42752706    -0.80400
C2940       C  0.71222702  0.51494735  0.42834674     1.09300
C2941       C  0.70825133  0.49187922  0.07037612     1.09200
C2942       C  0.70802828  0.93111369  0.98735877     1.09300
C2943       C  0.71384771  0.57465184  0.01042647     1.09200
O2944       O  0.79947704  0.54468067  0.47646888    -0.80400
O2945       O  0.79324945  0.95330236  0.02606988    -0.80500
O2946       O  0.79556757  0.97441966  0.45393711    -0.80400
O2947       O  0.79683935  0.52261496  0.04559245    -0.80400
O2948       O  0.77473408  0.98687888  0.07309998    -0.80400
O2949       O  0.77818523  0.51379485  0.42771477    -0.80400
O2950       O  0.78078876  0.57224227  0.01428623    -0.80300
O2951       O  0.77380096  0.92754298  0.48753588    -0.80400
Co2952     Co  0.75543104  0.53710040  0.46489862     1.51500
Co2953     Co  0.74999037  0.96565113  0.03548749     1.51700
Co2954     Co  0.75157801  0.96551704  0.46418588     1.51600
Co2955     Co  0.75396385  0.53612689  0.03538995     1.51500
O2956       O  0.75260958  0.00097123  0.99976630    -1.42300
C2957       C  0.79977306  0.57010559  0.99078128     1.09200
C2958       C  0.79075200  0.92768297  0.01255012     1.09300
C2959       C  0.79460132  0.98850491  0.42839928     1.09300
C2960       C  0.79467083  0.00962069  0.07150860     1.09200
C2961       C  0.64725142  0.87712813  0.39846900     0.02900
C2962       C  0.62401474  0.85306762  0.39686680    -0.13300
C2963       C  0.60094201  0.85277519  0.37251964     0.00400
C2964       C  0.60142051  0.87712852  0.34940368    -0.11800
C2965       C  0.62455000  0.90151526  0.35051577     0.02900
C2966       C  0.64727348  0.90125841  0.37516549    -0.11200
H2967       H  0.62393370  0.83439427  0.41462507     0.08500
H2968       H  0.58386253  0.87708750  0.33055376     0.06000
H2969       H  0.66522768  0.91971738  0.37601900     0.05900
C2970       C  0.70085179  0.90284042  0.46738802     0.02900
C2971       C  0.72365874  0.87879780  0.46548087    -0.13300
C2972       C  0.71892388  0.85134592  0.44798692     0.00400
C2973       C  0.69274717  0.85011936  0.42698600    -0.11800
C2974       C  0.67219956  0.87657391  0.42381652     0.02900
C2975       C  0.67589685  0.90254568  0.44490826    -0.11200
H2976       H  0.74581654  0.88093217  0.47732085     0.08500
H2977       H  0.68860591  0.82892237  0.41296170     0.06000
H2978       H  0.65980676  0.92259823  0.44342658     0.05900
C2979       C  0.60044417  0.97265090  0.29903599     0.02900
C2980       C  0.60048809  0.94945691  0.32337629    -0.13300
C2981       C  0.62531934  0.92693201  0.32561296     0.00400
C2982       C  0.65098949  0.92901161  0.30400212    -0.11800
C2983       C  0.65017246  0.95096604  0.27854463     0.02900
C2984       C  0.62393872  0.97065234  0.27562571    -0.11200
H2985       H  0.58091356  0.94845254  0.34008427     0.08500
H2986       H  0.67141787  0.91361493  0.30696436     0.06000
H2987       H  0.62222321  0.98392773  0.25428704     0.05900
C2988       C  0.55573647  0.77718267  0.34885440     0.02900
C2989       C  0.57518531  0.80464934  0.34653025    -0.13300
C2990       C  0.57658371  0.82680386  0.37184895     0.00400
C2991       C  0.55543585  0.82305813  0.39765479    -0.11800
C2992       C  0.53490029  0.79662629  0.39921189     0.02900
C2993       C  0.53844526  0.77260735  0.37650805    -0.11200
H2994       H  0.58930240  0.80861169  0.32536409     0.08500
H2995       H  0.55567495  0.84014963  0.41692758     0.06000
H2996       H  0.52807141  0.74972481  0.37993291     0.05900
C2997       C  0.87353176  0.65273665  0.10036553     0.02900
C2998       C  0.89684767  0.65268401  0.12459137    -0.13300
C2999       C  0.89783185  0.62830313  0.14759763     0.00400
C3000       C  0.87490399  0.60388386  0.14613112    -0.11800
C3001       C  0.85125473  0.60352570  0.12234762     0.02900
C3002       C  0.85081801  0.62804328  0.09945948    -0.11200
H3003       H  0.91426424  0.67164480  0.12549087     0.08500
H3004       H  0.87522511  0.58518529  0.16386418     0.06000
H3005       H  0.83274076  0.62802125  0.08110496     0.05900
C3006       C  0.96241144  0.60011676  0.20515521     0.02900
C3007       C  0.95832373  0.62284275  0.22907095    -0.13300
C3008       C  0.94310383  0.65143908  0.22324529     0.00400
C3009       C  0.92442281  0.65412306  0.19531640    -0.11800
C3010       C  0.92202875  0.62831178  0.17382239     0.02900
C3011       C  0.94234556  0.60186403  0.17829547    -0.11200
H3012       H  0.46675582  0.61878174  0.25269436     0.08500
H3013       H  0.91160988  0.67594046  0.19053872     0.06000
H3014       H  0.94195083  0.58244037  0.16138840     0.05900
C3015       C  0.89991856  0.70746431  0.03292648     0.02900
C3016       C  0.87817568  0.73235779  0.03731230    -0.13300
C3017       C  0.85095486  0.72870027  0.05559872     0.00400
C3018       C  0.84861119  0.70161006  0.07546493    -0.11800
C3019       C  0.87324440  0.67875910  0.07615078     0.02900
C3020       C  0.89818941  0.68129266  0.05385870    -0.11200
H3021       H  0.88203040  0.75525103  0.02718078     0.08500
H3022       H  0.82781514  0.69834116  0.09029651     0.06000
H3023       H  0.91674036  0.66342599  0.05350042     0.05900
C3024       C  0.78420051  0.54902826  0.14995837     0.02900
C3025       C  0.80571617  0.57466528  0.14835689    -0.13300
C3026       C  0.82674372  0.57775641  0.12235082     0.00400
C3027       C  0.82473734  0.55549970  0.09719247    -0.11800
C3028       C  0.80436564  0.52876184  0.09960968     0.02900
C3029       C  0.78651884  0.52515147  0.12697102    -0.11200
H3030       H  0.80665166  0.59173133  0.16762829     0.08500
H3031       H  0.83899542  0.55890386  0.07602109     0.06000
H3032       H  0.77473066  0.00301765  0.12986078     0.05900
O3033       O  0.95946127  0.79551612  0.47433656    -0.80400
O3034       O  0.55007365  0.79136839  0.02501251    -0.80400
O3035       O  0.98117291  0.79506390  0.04547574    -0.80400
O3036       O  0.52963235  0.79094396  0.45350818    -0.80300
O3037       O  0.51673621  0.77290438  0.07315729    -0.80500
O3038       O  0.99063378  0.77312268  0.42716802    -0.80400
O3039       O  0.57604239  0.77053541  0.48704463    -0.80400
O3040       O  0.93189598  0.77861586  0.01280078    -0.80400
C3041       C  0.93370718  0.79557025  0.48781625     1.09300
C3042       C  0.57537022  0.78957776  0.51060996     1.09200
C3043       C  0.49383727  0.79263341  0.07158622     1.09300
C3044       C  0.51577663  0.78975186  0.42792844     1.09200
O3045       O  0.97465245  0.70691547  0.45448384    -0.80400
O3046       O  0.52503797  0.70489435  0.04499768    -0.80500
O3047       O  0.95425420  0.70931995  0.02553299    -0.80400
O3048       O  0.54700330  0.70334609  0.47653427    -0.80400
O3049       O  0.57457107  0.72264830  0.01404700    -0.80400
O3050       O  0.92829005  0.72994352  0.48791608    -0.80400
O3051       O  0.51447845  0.72358223  0.42830898    -0.80300
O3052       O  0.98849224  0.72601451  0.07241224    -0.80400
Co3053     Co  0.96675275  0.75113951  0.46448927     1.51500
Co3054     Co  0.53786704  0.74814985  0.03554301     1.51700
Co3055     Co  0.96739771  0.75218245  0.03565025     1.51600
Co3056     Co  0.53830404  0.74718022  0.46483827     1.51500
O3057       O  0.50250858  0.74957146  0.49991560    -1.42300
C3058       C  0.48896706  0.70739616  0.42907115     1.09200
C3059       C  0.51139083  0.70623032  0.07065561     1.09300
C3060       C  0.92841454  0.71272620  0.01269164     1.09300
C3061       C  0.57261984  0.70366617  0.99054846     1.09200
C3062       C  0.60209799  0.53774107  0.20356394     0.02900
C3063       C  0.60377083  0.55832767  0.17715823    -0.13300
C3064       C  0.63012174  0.57880171  0.17313400     0.00400
C3065       C  0.65591126  0.57628337  0.19460852    -0.11800
C3066       C  0.65339206  0.55702109  0.22209955     0.02900
C3067       C  0.62504471  0.54114952  0.22742271    -0.11200
H3068       H  0.58435298  0.55899341  0.16024923     0.08500
H3069       H  0.67757369  0.58947557  0.19016177     0.06000
H3070       H  0.62134066  0.53179916  0.25069892     0.05900
C3071       C  0.63012764  0.60319202  0.14723539     0.02900
C3072       C  0.65455617  0.60420038  0.12436410    -0.13300
C3073       C  0.65462562  0.62753500  0.10027594     0.00400
C3074       C  0.62983312  0.65019809  0.09926466    -0.11800
C3075       C  0.60521760  0.64972685  0.12204261     0.02900
C3076       C  0.60563545  0.62605585  0.14579904    -0.11200
H3077       H  0.67346488  0.58672388  0.12519788     0.08500
H3078       H  0.62975105  0.66818952  0.08082517     0.06000
H3079       H  0.58687668  0.62558154  0.16345705     0.05900
C3080       C  0.52989136  0.69570944  0.09888732     0.02900
C3081       C  0.55717999  0.67602915  0.09640923    -0.13300
C3082       C  0.57914508  0.67400108  0.12185047     0.00400
C3083       C  0.57538654  0.69476368  0.14798948    -0.11800
C3084       C  0.54917120  0.71559157  0.14960244     0.02900
C3085       C  0.52530374  0.71257960  0.12671578    -0.11200
H3086       H  0.56121862  0.66232813  0.07498469     0.08500
H3087       H  0.59234902  0.69410585  0.16736431     0.06000
H3088       H  0.50254990  0.72320456  0.13002128     0.05900
C3089       C  0.72680983  0.65265012  0.05083034     0.02900
C3090       C  0.70282726  0.65251078  0.07439638    -0.13300
C3091       C  0.68022315  0.62765154  0.07571007     0.00400
C3092       C  0.68242270  0.60249017  0.05361700    -0.11800
C3093       C  0.70518029  0.60334706  0.02900682     0.02900
C3094       C  0.72575630  0.62900843  0.02749693    -0.11200
H3095       H  0.70140457  0.67189273  0.09129675     0.08500
H3096       H  0.66658607  0.58228146  0.05568928     0.06000
H3097       H  0.74054826  0.63014996  0.50724812     0.05900
C3098       C  0.90289684  0.64647354  0.37214019     0.02900
C3099       C  0.90343059  0.62200160  0.34919884    -0.13300
C3100       C  0.88070612  0.59730616  0.34993890     0.00400
C3101       C  0.85725449  0.59732980  0.37403805    -0.11800
C3102       C  0.85616845  0.62166395  0.39708987     0.02900
C3103       C  0.87911561  0.64607661  0.39578482    -0.11200
H3104       H  0.92159966  0.62205451  0.33093940     0.08500
H3105       H  0.83984108  0.57836107  0.37482981     0.06000
H3106       H  0.87873039  0.66472244  0.41356732     0.05900
C3107       C  0.94999965  0.72120676  0.34967615     0.02900
C3108       C  0.96781264  0.72475083  0.37708377    -0.13300
C3109       C  0.96996166  0.70087885  0.40011100     0.00400
C3110       C  0.94835775  0.67530191  0.39843522    -0.11800
C3111       C  0.92742809  0.67224518  0.37232708     0.02900
C3112       C  0.92956641  0.69452090  0.34719656    -0.11200
H3113       H  0.97972086  0.74681834  0.37998004     0.08500
H3114       H  0.94731454  0.65823000  0.41769809     0.06000
H3115       H  0.91536597  0.69116119  0.32597698     0.05900
C3116       C  0.81132294  0.59837901  0.47291241     0.02900
C3117       C  0.82972076  0.59568849  0.44479769    -0.13300
C3118       C  0.83198271  0.62153578  0.42332777     0.00400
C3119       C  0.81171267  0.64799040  0.42799646    -0.11800
C3120       C  0.79194391  0.64974348  0.45507424     0.02900
C3121       C  0.79630600  0.62703198  0.47895443    -0.11200
H3122       H  0.84245560  0.57385718  0.43988175     0.08500
H3123       H  0.81197520  0.66744075  0.41111471     0.06000
H3124       H  0.78823842  0.63115659  0.50270533     0.05900
C3125       C  0.85444823  0.54260182  0.28246949     0.02900
C3126       C  0.85618457  0.56878236  0.30336864    -0.13300
C3127       C  0.88110431  0.57131533  0.32568220     0.00400
C3128       C  0.90574619  0.54845432  0.32502669    -0.11800
C3129       C  0.90342700  0.52134994  0.30516311     0.02900
C3130       C  0.87621749  0.51771314  0.28684736    -0.11200
H3131       H  0.83762657  0.58664229  0.30299737     0.08500
H3132       H  0.92651363  0.55171059  0.33990256     0.06000
H3133       H  0.87237913  0.99481233  0.27672355     0.05900
C3134       C  0.85086217  0.87122832  0.09978831     0.02900
C3135       C  0.87507748  0.84799551  0.09904794    -0.13300
C3136       C  0.89910896  0.84752177  0.12247746     0.00400
C3137       C  0.89873429  0.87065995  0.14675569    -0.11800
C3138       C  0.87483221  0.89405125  0.14806108     0.02900
C3139       C  0.85098385  0.89408172  0.12442561    -0.11200
H3140       H  0.87513978  0.83025054  0.08037398     0.08500
H3141       H  0.91717612  0.87043649  0.16475211     0.06000
H3142       H  0.83250726  0.91201890  0.12512729     0.05900
C3143       C  0.84902703  0.94694770  0.21775261     0.02900
C3144       C  0.84911506  0.92248384  0.19466871    -0.13300
C3145       C  0.87521088  0.91888688  0.17364376     0.00400
C3146       C  0.90183712  0.93918222  0.17740042    -0.11800
C3147       C  0.90068823  0.96495749  0.19894090     0.02900
C3148       C  0.87335061  0.96939769  0.21650566    -0.11200
H3149       H  0.82887862  0.90667754  0.19273749     0.08500
H3150       H  0.92309577  0.93515223  0.16344348     0.06000
H3151       H  0.87153949  0.99116984  0.22898041     0.05900
C3152       C  0.95351610  0.78031041  0.14961296     0.02900
C3153       C  0.97765784  0.78314849  0.12688727    -0.13300
C3154       C  0.97417410  0.80140367  0.09969099     0.00400
C3155       C  0.94728935  0.82154038  0.09731119    -0.11800
C3156       C  0.92474420  0.82293487  0.12222721     0.02900
C3157       C  0.92768237  0.80155440  0.14794287    -0.11200
H3158       H  0.49991638  0.77157911  0.12992302     0.08500
H3159       H  0.94404656  0.83618892  0.07637962     0.06000
H3160       H  0.91038619  0.80209035  0.16702371     0.05900
C3161       C  0.77530151  0.84949302  0.05396646     0.02900
C3162       C  0.77177235  0.87680138  0.03588072    -0.13300
C3163       C  0.79643887  0.89890004  0.03226605     0.00400
C3164       C  0.82242707  0.89704425  0.05349645    -0.11800
C3165       C  0.82500448  0.87160185  0.07530702     0.02900
C3166       C  0.80221174  0.84695556  0.07402899    -0.11200
H3167       H  0.74910871  0.88042152  0.02524669     0.08500
H3168       H  0.84010313  0.91577598  0.05368612     0.06000
H3169       H  0.80539153  0.82595146  0.08859427     0.05900
C3170       C  0.60738392  0.87274083  0.14844481     0.02900
C3171       C  0.63058312  0.89683141  0.14674837    -0.13300
C3172       C  0.65356839  0.89714340  0.12231724     0.00400
C3173       C  0.65305377  0.87278671  0.09922580    -0.11800
C3174       C  0.62998549  0.84835933  0.10044701     0.02900
C3175       C  0.60734802  0.84858116  0.12517392    -0.11200
H3176       H  0.63068809  0.91552519  0.16448152     0.08500
H3177       H  0.67054676  0.87284710  0.08031782     0.06000
H3178       H  0.58942032  0.83009936  0.12608483     0.05900
C3179       C  0.71960615  0.95321570  0.14896582     0.02900
C3180       C  0.71605277  0.97727005  0.12628906    -0.13300
C3181       C  0.69874864  0.97275132  0.09863726     0.00400
C3182       C  0.67932471  0.94526469  0.09627200    -0.11800
C3183       C  0.67793210  0.92309050  0.12158685     0.02900
C3184       C  0.69908712  0.92679395  0.14737993    -0.11200
H3185       H  0.72639826  0.00015582  0.12973619     0.08500
H3186       H  0.66519384  0.94132691  0.07510895     0.06000
H3187       H  0.69885103  0.90968142  0.16663916     0.05900
C3188       C  0.55338218  0.84709582  0.21708432     0.02900
C3189       C  0.57856506  0.84743370  0.19486193    -0.13300
C3190       C  0.58238085  0.87337014  0.17374109     0.00400
C3191       C  0.56179575  0.89981521  0.17673792    -0.11800
C3192       C  0.53541889  0.89856038  0.19748709     0.02900
C3193       C  0.53048122  0.87104011  0.21484149    -0.11200
H3194       H  0.59470918  0.82741294  0.19356007     0.08500
H3195       H  0.56604678  0.92101764  0.16275096     0.06000
H3196       H  0.50813189  0.86878844  0.22629659     0.05900
C3197       C  0.65403455  0.77723648  0.04897495     0.02900
C3198       C  0.65397673  0.80038447  0.07335091    -0.13300
C3199       C  0.62919050  0.82295755  0.07555007     0.00400
C3200       C  0.60353386  0.82092028  0.05392287    -0.11800
C3201       C  0.60435546  0.79898638  0.02845415     0.02900
C3202       C  0.63064329  0.77939161  0.02546272    -0.11200
H3203       H  0.67349820  0.80130500  0.09012921     0.08500
H3204       H  0.58308862  0.83628675  0.05691800     0.06000
H3205       H  0.63238297  0.76621970  0.50406842     0.05900
O3206       O  0.98438990  0.95416870  0.29520817    -0.80400
O3207       O  0.52026089  0.54287230  0.29616858    -0.80400
O3208       O  0.54635395  0.97977938  0.29433529    -0.80400
O3209       O  0.95756759  0.51579704  0.29713247    -0.80300
O3210       O  0.57279950  0.51768970  0.27585255    -0.80500
O3211       O  0.93060998  0.97891126  0.27704774    -0.80400
O3212       O  0.98237498  0.56958688  0.27805395    -0.80400
O3213       O  0.52116937  0.92730866  0.27477003    -0.80400
C3214       C  0.99800665  0.92850309  0.29408943     1.09300
C3215       C  0.00712619  0.56875353  0.29517586     1.09200
C3216       C  0.57214658  0.49297813  0.29305100     1.09300
C3217       C  0.93185197  0.50217867  0.29624299     1.09200
O3218       O  0.95478241  0.96791510  0.20889978    -0.80400
O3219       O  0.54765013  0.53202321  0.20900494    -0.80500
O3220       O  0.53254405  0.95281166  0.20729452    -0.80400
O3221       O  0.96824745  0.54577690  0.21065997    -0.80400
O3222       O  0.50702261  0.57267509  0.22910972    -0.80400
O3223       O  0.99415316  0.92578901  0.22688881    -0.80400
O3224       O  0.92773284  0.50583196  0.22920591    -0.80300
O3225       O  0.57464837  0.99295668  0.22689694    -0.80400
Co3226     Co  0.96945386  0.96068585  0.25194267     1.51500
Co3227     Co  0.53372222  0.53766539  0.25237463     1.51700
Co3228     Co  0.53987304  0.96652845  0.25066140     1.51600
Co3229     Co  0.96284680  0.53084667  0.25370123     1.51500
O3230       O  0.50155573  0.49911314  0.24797882    -1.42300
C3231       C  0.92936791  0.48224195  0.21013919     1.09200
C3232       C  0.57342257  0.51839041  0.21048299     1.09300
C3233       C  0.51804928  0.92739220  0.20822920     1.09300
C3234       C  0.48175784  0.57152589  0.21242278     1.09200
O3235       O  0.79500722  0.95442587  0.72415880    -0.80400
O3236       O  0.70447212  0.95830913  0.77471831    -0.80400
O3237       O  0.77342085  0.95492313  0.79522033    -0.80400
O3238       O  0.72486132  0.95874813  0.70328532    -0.80300
O3239       O  0.73777554  0.97686943  0.82293623    -0.80500
O3240       O  0.76380809  0.97670436  0.67696171    -0.80400
O3241       O  0.67835913  0.97911437  0.73685040    -0.80400
O3242       O  0.82255852  0.97149432  0.76256345    -0.80400
C3243       C  0.82076995  0.95447593  0.73762613     1.09300
C3244       C  0.67909497  0.96013663  0.76046605     1.09200
C3245       C  0.76079163  0.95727526  0.82134224     1.09300
C3246       C  0.73871070  0.96002212  0.67770130     1.09200
O3247       O  0.77949950  0.54296257  0.70428733    -0.80400
O3248       O  0.72906894  0.54485990  0.79490262    -0.80500
O3249       O  0.80007763  0.54072866  0.77520613    -0.80400
O3250       O  0.70732901  0.54632276  0.72621219    -0.80400
O3251       O  0.67976767  0.52703983  0.76372818    -0.80400
O3252       O  0.82600730  0.52010359  0.73755357    -0.80400
O3253       O  0.73977288  0.52614295  0.67807151    -0.80300
O3254       O  0.76580631  0.52390931  0.82220723    -0.80400
Co3255     Co  0.78756936  0.49877287  0.71427334     1.51500
Co3256     Co  0.71647632  0.00156560  0.78533844     1.51700
Co3257     Co  0.78701502  0.99785044  0.78540401     1.51600
Co3258     Co  0.71605894  0.50249427  0.71459823     1.51500
O3259       O  0.75184804  0.00029359  0.74971018    -1.42300
C3260       C  0.76520198  0.54243828  0.67886956     1.09200
C3261       C  0.74275904  0.54353760  0.82054210     1.09300
C3262       C  0.82590370  0.53733481  0.76230901     1.09300
C3263       C  0.68172137  0.54601523  0.74021338     1.09200
O3264       O  0.96098438  0.79636888  0.77580443    -0.80400
O3265       O  0.95496374  0.70513292  0.72675725    -0.80400
O3266       O  0.95869231  0.77496332  0.70406800    -0.80400
O3267       O  0.95761728  0.72734068  0.79566550    -0.80300
O3268       O  0.97619614  0.73577645  0.67776653    -0.80500
O3269       O  0.97963989  0.76312276  0.82315401    -0.80400
O3270       O  0.97370435  0.67759997  0.76456581    -0.80400
O3271       O  0.98036307  0.82210566  0.73723045    -0.80400
C3272       C  0.96340181  0.82197006  0.76222859     1.09300
C3273       C  0.95468208  0.67971695  0.74108774     1.09200
C3274       C  0.95974617  0.76104280  0.67846228     1.09300
C3275       C  0.95974174  0.74034728  0.82157731     1.09200
O3276       O  0.54763331  0.77162570  0.79470509    -0.80400
O3277       O  0.54292579  0.72035591  0.70382113    -0.80500
O3278       O  0.54679551  0.79291654  0.72384576    -0.80400
O3279       O  0.54331804  0.70084542  0.77436368    -0.80400
O3280       O  0.52134808  0.67444501  0.73746163    -0.80400
O3281       O  0.52924132  0.82042873  0.76205086    -0.80400
O3282       O  0.52664465  0.73505950  0.82223676    -0.80300
O3283       O  0.52563831  0.75980203  0.67754326    -0.80400
Co3284     Co  0.50429269  0.78431182  0.78543600     1.51500
Co3285     Co  0.99899985  0.71260167  0.71507713     1.51700
Co3286     Co  0.00269784  0.78410666  0.71408251     1.51600
Co3287     Co  0.50050434  0.71378935  0.78557839     1.51500
O3288       O  0.50194154  0.74882990  0.74984354    -1.42300
C3289       C  0.54612401  0.75821755  0.82053464     1.09200
C3290       C  0.54214507  0.73452485  0.67839025     1.09300
C3291       C  0.54613867  0.81882647  0.73705826     1.09300
C3292       C  0.54063691  0.67519779  0.76077192     1.09200
O3293       O  0.70679115  0.71757720  0.95924379    -0.80400
O3294       O  0.79962991  0.78226048  0.95932001    -0.80400
O3295       O  0.72186372  0.79708965  0.95771000    -0.80400
O3296       O  0.78624728  0.70406486  0.96090114    -0.80300
O3297       O  0.76014469  0.82415070  0.97746950    -0.80500
O3298       O  0.74747441  0.67711510  0.97933786    -0.80400
O3299       O  0.82665988  0.74421317  0.97945525    -0.80400
O3300       O  0.67985622  0.75671497  0.97704231    -0.80400
C3301       C  0.68103314  0.73123304  0.96068722     1.09300
C3302       C  0.82502492  0.76788628  0.96046872     1.09200
C3303       C  0.73629874  0.82253619  0.95874898     1.09300
C3304       C  0.77269541  0.67832480  0.96258744     1.09200
O3305       O  0.73420237  0.70688119  0.54643340    -0.80400
O3306       O  0.76995870  0.79552550  0.54568860    -0.80500
O3307       O  0.70810246  0.76972823  0.54462205    -0.80400
O3308       O  0.79684504  0.73408658  0.54737469    -0.80400
O3309       O  0.82378194  0.77103778  0.52738479    -0.80400
O3310       O  0.68155495  0.73199995  0.52600444    -0.80400
O3311       O  0.77211580  0.68023537  0.52827711    -0.80300
O3312       O  0.73312659  0.82235983  0.52532256    -0.80400
Co3313     Co  0.72072647  0.71206026  0.50262764     1.51500
Co3314     Co  0.78489530  0.78921533  0.00238328     1.51700
Co3315     Co  0.71453364  0.78317638  0.00100509     1.51600
Co3316     Co  0.79162454  0.71902646  0.50394168     1.51500
O3317       O  0.75287697  0.75068511  0.99822220    -1.42300
C3318       C  0.74733960  0.68099973  0.54537474     1.09200
C3319       C  0.75630188  0.82117361  0.54463915     1.09300
C3320       C  0.68223644  0.75670632  0.54319424     1.09300
C3321       C  0.82252939  0.74777228  0.54656970     1.09200
C3322       C  0.80100444  0.96945664  0.89948635     0.02900
C3323       C  0.77691632  0.96663550  0.87670105    -0.13300
C3324       C  0.78054572  0.94855674  0.84941749     0.00400
C3325       C  0.80754221  0.92855838  0.84700693    -0.11800
C3326       C  0.82999869  0.92708489  0.87201545     0.02900
C3327       C  0.82692567  0.94834164  0.89779933    -0.11200
H3328       H  0.75456227  0.97802317  0.87980699     0.08500
H3329       H  0.81088811  0.91400979  0.82602582     0.06000
H3330       H  0.84415175  0.94776500  0.91694713     0.05900
C3331       C  0.87972894  0.85587907  0.89804967     0.02900
C3332       C  0.85590984  0.87936080  0.89669910    -0.13300
C3333       C  0.85559396  0.90245705  0.87236331     0.00400
C3334       C  0.87961063  0.90186925  0.84894183    -0.11800
C3335       C  0.90373063  0.87854727  0.84970556     0.02900
C3336       C  0.90355763  0.85572957  0.87438871    -0.11200
H3337       H  0.83747570  0.87967846  0.91469731     0.08500
H3338       H  0.87959404  0.91957993  0.83023092     0.06000
H3339       H  0.92197141  0.83772826  0.87510297     0.05900
C3340       C  0.97899297  0.90021335  0.80340963     0.02900
C3341       C  0.98234706  0.87297785  0.78520022    -0.13300
C3342       C  0.95774347  0.85077478  0.78190208     0.00400
C3343       C  0.93195173  0.85258356  0.80337016    -0.11800
C3344       C  0.92950372  0.87806067  0.82515200     0.02900
C3345       C  0.95226052  0.90272395  0.82368679    -0.11200
H3346       H  0.50484435  0.86948026  0.77424431     0.08500
H3347       H  0.91431822  0.83381504  0.80373796     0.06000
H3348       H  0.94918854  0.92372554  0.83827524     0.05900
C3349       C  0.90544806  0.80312195  0.96793154     0.02900
C3350       C  0.88104776  0.78074924  0.96682262    -0.13300
C3351       C  0.85371804  0.78515931  0.94922487     0.00400
C3352       C  0.85261509  0.81087243  0.92758143    -0.11800
C3353       C  0.87929721  0.83109743  0.92371949     0.02900
C3354       C  0.90540836  0.82749227  0.94473735    -0.11200
H3355       H  0.88279949  0.75906754  0.97944625     0.09300
H3356       H  0.83135679  0.81489935  0.91361993     0.06000
H3357       H  0.92569112  0.84322895  0.94272513     0.05900
C3358       C  0.64886335  0.59961620  0.87239053     0.02900
C3359       C  0.62418640  0.59928216  0.84968170    -0.13300
C3360       C  0.59945973  0.62200522  0.85082177     0.00400
C3361       C  0.59964064  0.64524467  0.87499549    -0.11800
C3362       C  0.62412974  0.64611766  0.89781965     0.02900
C3363       C  0.64855081  0.62318288  0.89625909    -0.11200
H3364       H  0.62419967  0.58137968  0.83115775     0.08500
H3365       H  0.58079636  0.66278653  0.87590307     0.06000
H3366       H  0.66736400  0.62355597  0.91386575     0.05900
C3367       C  0.65231031  0.71186306  0.95383486     0.02900
C3368       C  0.62926923  0.70871898  0.97764311    -0.13300
C3369       C  0.60097392  0.69268348  0.97246656     0.00400
C3370       C  0.59849984  0.67318993  0.94515291    -0.11800
C3371       C  0.62428995  0.67052763  0.92370840     0.02900
C3372       C  0.65066961  0.69100889  0.92762128    -0.11200
H3373       H  0.63289068  0.71833686  0.00081254     0.08500
H3374       H  0.57684905  0.65994556  0.94080400     0.06000
H3375       H  0.67010646  0.69018690  0.91074616     0.05900
C3376       C  0.70507354  0.53377678  0.89954154     0.02900
C3377       C  0.67877445  0.55448564  0.89800895    -0.13300
C3378       C  0.67492823  0.57534080  0.87197130     0.00400
C3379       C  0.69685399  0.57346475  0.84647773    -0.11800
C3380       C  0.72421479  0.55385484  0.84883965     0.02900
C3381       C  0.72889778  0.53691133  0.87662022    -0.11200
H3382       H  0.66184958  0.55503562  0.91741867     0.08500
H3383       H  0.69275153  0.58725807  0.82512182     0.06000
H3384       H  0.75170821  0.52638517  0.87989804     0.05900
C3385       C  0.54928388  0.64649698  0.77936802     0.02900
C3386       C  0.57177659  0.64736794  0.80423413    -0.13300
C3387       C  0.57389691  0.62208963  0.82621559     0.00400
C3388       C  0.55136069  0.59719074  0.82462275    -0.11800
C3389       C  0.52761064  0.59707407  0.80082871     0.02900
C3390       C  0.52890718  0.62070950  0.77750017    -0.11200
H3391       H  0.58751989  0.66762410  0.80653562     0.08500
H3392       H  0.55268486  0.57774273  0.84145912     0.06000
H3393       H  0.51448466  0.61947058  0.75698019     0.05900
O3394       O  0.71150636  0.52919883  0.95373848    -0.80400
O3395       O  0.70667555  0.97860933  0.54449567    -0.80400
O3396       O  0.70744426  0.95701638  0.97413017    -0.80400
O3397       O  0.71116519  0.54901481  0.52404079    -0.80300
O3398       O  0.72493036  0.92950013  0.51233777    -0.80500
O3399       O  0.73314823  0.57537684  0.98713645    -0.80400
O3400       O  0.72778587  0.51498473  0.57211310    -0.80400
O3401       O  0.72873613  0.98967986  0.92752706    -0.80400
C3402       C  0.71222695  0.51494738  0.92834672     1.09300
C3403       C  0.70825135  0.49187930  0.57037624     1.09200
C3404       C  0.70802816  0.93111369  0.48735883     1.09300
C3405       C  0.71384773  0.57465186  0.51042647     1.09200
O3406       O  0.79947704  0.54468067  0.97646874    -0.80400
O3407       O  0.79324941  0.95330234  0.52606986    -0.80500
O3408       O  0.79556750  0.97441967  0.95393715    -0.80400
O3409       O  0.79683931  0.52261495  0.54559251    -0.80400
O3410       O  0.77473423  0.98687884  0.57309988    -0.80400
O3411       O  0.77818515  0.51379490  0.92771474    -0.80400
O3412       O  0.78078876  0.57224229  0.51428630    -0.80300
O3413       O  0.77380101  0.92754301  0.98753586    -0.80400
Co3414     Co  0.75543100  0.53710041  0.96489855     1.51500
Co3415     Co  0.74999037  0.96565111  0.53548745     1.51700
Co3416     Co  0.75157798  0.96551705  0.96418586     1.51600
Co3417     Co  0.75396382  0.53612693  0.53538997     1.51500
O3418       O  0.75260959  0.00097125  0.49976632    -1.42300
C3419       C  0.79977306  0.57010559  0.49078139     1.09200
C3420       C  0.79075201  0.92768295  0.51255011     1.09300
C3421       C  0.79460138  0.98850493  0.92839932     1.09300
C3422       C  0.79467104  0.00962060  0.57150851     1.09200
C3423       C  0.64725144  0.87712788  0.89846900     0.02900
C3424       C  0.62401485  0.85306745  0.89686670    -0.13300
C3425       C  0.60094210  0.85277505  0.87251956     0.00400
C3426       C  0.60142059  0.87712844  0.84940364    -0.11800
C3427       C  0.62454991  0.90151514  0.85051570     0.02900
C3428       C  0.64727352  0.90125822  0.87516542    -0.11200
H3429       H  0.62393393  0.83439373  0.91462503     0.08500
H3430       H  0.58386205  0.87708785  0.83055381     0.06000
H3431       H  0.66522764  0.91971678  0.87601877     0.05900
C3432       C  0.70085201  0.90284038  0.96738799     0.02900
C3433       C  0.72365897  0.87879781  0.96548085    -0.13300
C3434       C  0.71892404  0.85134593  0.94798700     0.00400
C3435       C  0.69274729  0.85011930  0.92698604    -0.11800
C3436       C  0.67219966  0.87657381  0.92381654     0.02900
C3437       C  0.67589701  0.90254568  0.94490819    -0.11200
H3438       H  0.74581695  0.88093228  0.97732066     0.08500
H3439       H  0.68860562  0.82892224  0.91296233     0.06000
H3440       H  0.65980722  0.92259819  0.94342641     0.05900
C3441       C  0.60044418  0.97265088  0.79903591     0.02900
C3442       C  0.60048808  0.94945694  0.82337623    -0.13300
C3443       C  0.62531924  0.92693205  0.82561297     0.00400
C3444       C  0.65098951  0.92901165  0.80400217    -0.11800
C3445       C  0.65017242  0.95096606  0.77854455     0.02900
C3446       C  0.62393877  0.97065241  0.77562566    -0.11200
H3447       H  0.58091346  0.94845272  0.84008419     0.08500
H3448       H  0.67141744  0.91361505  0.80696427     0.06000
H3449       H  0.62222334  0.98392780  0.75428713     0.05900
C3450       C  0.55573651  0.77718259  0.84885435     0.02900
C3451       C  0.57518545  0.80464920  0.84653021    -0.13300
C3452       C  0.57658389  0.82680373  0.87184884     0.00400
C3453       C  0.55543597  0.82305810  0.89765468    -0.11800
C3454       C  0.53490035  0.79662634  0.89921181     0.02900
C3455       C  0.53844526  0.77260740  0.87650803    -0.11200
H3456       H  0.58930296  0.80861142  0.82536409     0.08500
H3457       H  0.55567513  0.84014955  0.91692748     0.06000
H3458       H  0.52807112  0.74972494  0.87993293     0.05900
C3459       C  0.87353185  0.65273668  0.60036560     0.02900
C3460       C  0.89684776  0.65268410  0.62459145    -0.13300
C3461       C  0.89783192  0.62830326  0.64759760     0.00400
C3462       C  0.87490403  0.60388389  0.64613107    -0.11800
C3463       C  0.85125471  0.60352583  0.62234756     0.02900
C3464       C  0.85081808  0.62804326  0.59945939    -0.11200
H3465       H  0.91426437  0.67164488  0.62549088     0.08500
H3466       H  0.87522506  0.58518583  0.66386376     0.06000
H3467       H  0.83274121  0.62802112  0.58110492     0.05900
C3468       C  0.96241132  0.60011669  0.70515534     0.02900
C3469       C  0.95832363  0.62284268  0.72907110    -0.13300
C3470       C  0.94310380  0.65143897  0.72324541     0.00400
C3471       C  0.92442279  0.65412293  0.69531649    -0.11800
C3472       C  0.92202871  0.62831166  0.67382243     0.02900
C3473       C  0.94234543  0.60186398  0.67829561    -0.11200
H3474       H  0.46675560  0.61878185  0.75269394     0.08500
H3475       H  0.91160990  0.67594026  0.69053897     0.06000
H3476       H  0.94195061  0.58243998  0.66138846     0.05900
C3477       C  0.89991859  0.70746448  0.53292646     0.02900
C3478       C  0.87817569  0.73235785  0.53731233    -0.13300
C3479       C  0.85095483  0.72870037  0.55559865     0.00400
C3480       C  0.84861116  0.70161018  0.57546496    -0.11800
C3481       C  0.87324429  0.67875911  0.57615076     0.02900
C3482       C  0.89818942  0.68129273  0.55385873    -0.11200
H3483       H  0.88203041  0.75525156  0.52718036     0.08500
H3484       H  0.82781475  0.69834115  0.59029633     0.06000
H3485       H  0.91674019  0.66342602  0.55350044     0.05900
C3486       C  0.78420043  0.54902813  0.64995823     0.02900
C3487       C  0.80571618  0.57466515  0.64835667    -0.13300
C3488       C  0.82674380  0.57775631  0.62235062     0.00400
C3489       C  0.82473728  0.55549962  0.59719239    -0.11800
C3490       C  0.80436551  0.52876182  0.59960961     0.02900
C3491       C  0.78651877  0.52515153  0.62697092    -0.11200
H3492       H  0.80665191  0.59173083  0.66762817     0.08500
H3493       H  0.83899546  0.55890375  0.57602071     0.06000
H3494       H  0.77473048  0.00301680  0.62986074     0.05900
O3495       O  0.95946126  0.79551622  0.97433659    -0.80400
O3496       O  0.55007361  0.79136823  0.52501243    -0.80400
O3497       O  0.98117276  0.79506374  0.54547575    -0.80400
O3498       O  0.52963241  0.79094400  0.95350811    -0.80300
O3499       O  0.51673621  0.77290430  0.57315719    -0.80500
O3500       O  0.99063384  0.77312272  0.92716799    -0.80400
O3501       O  0.57604238  0.77053544  0.98704470    -0.80400
O3502       O  0.93189595  0.77861576  0.51280074    -0.80400
C3503       C  0.93370717  0.79557029  0.98781626     1.09300
C3504       C  0.57537023  0.78957795  0.01060994     1.09200
C3505       C  0.49383736  0.79263339  0.57158613     1.09300
C3506       C  0.51577668  0.78975196  0.92792839     1.09200
O3507       O  0.97465239  0.70691545  0.95448376    -0.80400
O3508       O  0.52503795  0.70489422  0.54499764    -0.80500
O3509       O  0.95425416  0.70931973  0.52553293    -0.80400
O3510       O  0.54700323  0.70334610  0.97653431    -0.80400
O3511       O  0.57457112  0.72264820  0.51404709    -0.80400
O3512       O  0.92828994  0.72994360  0.98791618    -0.80400
O3513       O  0.51447839  0.72358234  0.92830893    -0.80300
O3514       O  0.98849225  0.72601445  0.57241231    -0.80400
Co3515     Co  0.96675268  0.75113957  0.96448923     1.51500
Co3516     Co  0.53786706  0.74814976  0.53554301     1.51700
Co3517     Co  0.96739769  0.75218230  0.53565023     1.51600
Co3518     Co  0.53830406  0.74718024  0.96483824     1.51500
O3519       O  0.50250859  0.74957154  0.99991550    -1.42300
C3520       C  0.48896707  0.70739618  0.92907109     1.09200
C3521       C  0.51139092  0.70623029  0.57065565     1.09300
C3522       C  0.92841456  0.71272606  0.51269153     1.09300
C3523       C  0.57261988  0.70366608  0.49054852     1.09200
C3524       C  0.60209796  0.53774115  0.70356417     0.02900
C3525       C  0.60377082  0.55832772  0.67715836    -0.13300
C3526       C  0.63012171  0.57880170  0.67313410     0.00400
C3527       C  0.65591119  0.57628343  0.69460861    -0.11800
C3528       C  0.65339195  0.55702107  0.72209969     0.02900
C3529       C  0.62504466  0.54114949  0.72742290    -0.11200
H3530       H  0.58435312  0.55899354  0.66024969     0.08500
H3531       H  0.67757328  0.58947553  0.69016195     0.06000
H3532       H  0.62134070  0.53179914  0.75069892     0.05900
C3533       C  0.63012765  0.60319198  0.64723546     0.02900
C3534       C  0.65455617  0.60420040  0.62436415    -0.13300
C3535       C  0.65462566  0.62753490  0.60027598     0.00400
C3536       C  0.62983311  0.65019798  0.59926472    -0.11800
C3537       C  0.60521759  0.64972681  0.62204272     0.02900
C3538       C  0.60563545  0.62605584  0.64579909    -0.11200
H3539       H  0.67346530  0.58672383  0.62519810     0.08500
H3540       H  0.62975105  0.66818940  0.58082520     0.06000
H3541       H  0.58687638  0.62558145  0.66345714     0.05900
C3542       C  0.52989144  0.69570947  0.59888749     0.02900
C3543       C  0.55718005  0.67602919  0.59640941    -0.13300
C3544       C  0.57914521  0.67400113  0.62185065     0.00400
C3545       C  0.57538662  0.69476370  0.64798959    -0.11800
C3546       C  0.54917139  0.71559158  0.64960271     0.02900
C3547       C  0.52530384  0.71257966  0.62671599    -0.11200
H3548       H  0.56121869  0.66232806  0.57498489     0.08500
H3549       H  0.59234949  0.69410575  0.66736481     0.06000
H3550       H  0.50254999  0.72320467  0.63002147     0.05900
C3551       C  0.72680979  0.65265014  0.55083036     0.02900
C3552       C  0.70282720  0.65251077  0.57439642    -0.13300
C3553       C  0.68022312  0.62765152  0.57571002     0.00400
C3554       C  0.68242267  0.60249022  0.55361688    -0.11800
C3555       C  0.70518027  0.60334706  0.52900677     0.02900
C3556       C  0.72575630  0.62900841  0.52749694    -0.11200
H3557       H  0.70140426  0.67189276  0.59129680     0.08500
H3558       H  0.66658600  0.58228146  0.55568918     0.06000
H3559       H  0.74054822  0.63015005  0.00724796     0.05900
C3560       C  0.90289693  0.64647340  0.87214018     0.02900
C3561       C  0.90343055  0.62200149  0.84919884    -0.13300
C3562       C  0.88070598  0.59730614  0.84993896     0.00400
C3563       C  0.85725436  0.59732974  0.87403808    -0.11800
C3564       C  0.85616839  0.62166391  0.89708980     0.02900
C3565       C  0.87911568  0.64607651  0.89578475    -0.11200
H3566       H  0.92159938  0.62205420  0.83093954     0.08500
H3567       H  0.83984094  0.57836117  0.87482972     0.06000
H3568       H  0.87873058  0.66472218  0.91356709     0.05900
C3569       C  0.94999966  0.72120665  0.84967617     0.02900
C3570       C  0.96781268  0.72475066  0.87708379    -0.13300
C3571       C  0.96996168  0.70087872  0.90011098     0.00400
C3572       C  0.94835781  0.67530180  0.89843520    -0.11800
C3573       C  0.92742820  0.67224508  0.87232701     0.02900
C3574       C  0.92956648  0.69452085  0.84719656    -0.11200
H3575       H  0.97972087  0.74681792  0.87998005     0.08500
H3576       H  0.94731461  0.65822993  0.91769799     0.06000
H3577       H  0.91536589  0.69116128  0.82597698     0.05900
C3578       C  0.81132290  0.59837901  0.97291230     0.02900
C3579       C  0.82972070  0.59568853  0.94479759    -0.13300
C3580       C  0.83198268  0.62153586  0.92332768     0.00400
C3581       C  0.81171266  0.64799045  0.92799634    -0.11800
C3582       C  0.79194387  0.64974357  0.95507413     0.02900
C3583       C  0.79630598  0.62703196  0.97895436    -0.11200
H3584       H  0.84245555  0.57385718  0.93988169     0.08500
H3585       H  0.81197521  0.66744085  0.91111428     0.06000
H3586       H  0.78823849  0.63115640  0.00270541     0.05900
C3587       C  0.85444827  0.54260182  0.78246944     0.02900
C3588       C  0.85618457  0.56878229  0.80336862    -0.13300
C3589       C  0.88110431  0.57131525  0.82568231     0.00400
C3590       C  0.90574617  0.54845425  0.82502675    -0.11800
C3591       C  0.90342703  0.52134992  0.80516324     0.02900
C3592       C  0.87621753  0.51771316  0.78684740    -0.11200
H3593       H  0.83762664  0.58664229  0.80299706     0.08500
H3594       H  0.92651392  0.55171039  0.83990284     0.06000
H3595       H  0.87237921  0.99481225  0.77672378     0.05900
C3596       C  0.85086210  0.87122844  0.59978838     0.02900
C3597       C  0.87507753  0.84799563  0.59904799    -0.13300
C3598       C  0.89910898  0.84752170  0.62247761     0.00400
C3599       C  0.89873431  0.87065982  0.64675575    -0.11800
C3600       C  0.87483219  0.89405111  0.64806119     0.02900
C3601       C  0.85098390  0.89408175  0.62442567    -0.11200
H3602       H  0.87513992  0.83025072  0.58037399     0.08500
H3603       H  0.91717602  0.87043597  0.66475267     0.06000
H3604       H  0.83250713  0.91201925  0.62512765     0.05900
C3605       C  0.84902706  0.94694751  0.71775264     0.02900
C3606       C  0.84911506  0.92248372  0.69466869    -0.13300
C3607       C  0.87521088  0.91888677  0.67364377     0.00400
C3608       C  0.90183714  0.93918216  0.67740045    -0.11800
C3609       C  0.90068831  0.96495741  0.69894094     0.02900
C3610       C  0.87335061  0.96939759  0.71650567    -0.11200
H3611       H  0.82887850  0.90667747  0.69273735     0.08500
H3612       H  0.92309587  0.93515206  0.66344360     0.06000
H3613       H  0.87153953  0.99116939  0.72898067     0.05900
C3614       C  0.95351609  0.78031054  0.64961318     0.02900
C3615       C  0.97765780  0.78314864  0.62688737    -0.13300
C3616       C  0.97417410  0.80140366  0.59969102     0.00400
C3617       C  0.94728931  0.82154027  0.59731128    -0.11800
C3618       C  0.92474412  0.82293474  0.62222738     0.02900
C3619       C  0.92768240  0.80155438  0.64794297    -0.11200
H3620       H  0.49991711  0.77157906  0.62992295     0.08500
H3621       H  0.94404642  0.83618881  0.57637964     0.06000
H3622       H  0.91038581  0.80209036  0.66702429     0.05900
C3623       C  0.77530154  0.84949303  0.55396639     0.02900
C3624       C  0.77177238  0.87680139  0.53588079    -0.13300
C3625       C  0.79643880  0.89890005  0.53226606     0.00400
C3626       C  0.82242707  0.89704425  0.55349642    -0.11800
C3627       C  0.82500442  0.87160193  0.57530706     0.02900
C3628       C  0.80221177  0.84695561  0.57402899    -0.11200
H3629       H  0.74910850  0.88042142  0.52524644     0.08500
H3630       H  0.84010309  0.91577596  0.55368604     0.06000
H3631       H  0.80539167  0.82595153  0.58859428     0.05900
C3632       C  0.60738402  0.87274086  0.64844481     0.02900
C3633       C  0.63058321  0.89683131  0.64674851    -0.13300
C3634       C  0.65356851  0.89714330  0.62231736     0.00400
C3635       C  0.65305389  0.87278666  0.59922583    -0.11800
C3636       C  0.62998563  0.84835933  0.60044692     0.02900
C3637       C  0.60734808  0.84858108  0.62517389    -0.11200
H3638       H  0.63068817  0.91552488  0.66448191     0.08500
H3639       H  0.67054685  0.87284717  0.58031785     0.06000
H3640       H  0.58942075  0.83009982  0.62608483     0.05900
C3641       C  0.71960624  0.95321547  0.64896599     0.02900
C3642       C  0.71605299  0.97726973  0.62628910    -0.13300
C3643       C  0.69874886  0.97275102  0.59863730     0.00400
C3644       C  0.67932493  0.94526446  0.59627204    -0.11800
C3645       C  0.67793223  0.92309030  0.62158691     0.02900
C3646       C  0.69908721  0.92679376  0.64737998    -0.11200
H3647       H  0.72639860  0.00015569  0.62973621     0.08500
H3648       H  0.66519428  0.94132657  0.57510868     0.06000
H3649       H  0.69885106  0.90968102  0.66663933     0.05900
C3650       C  0.55338198  0.84709562  0.71708439     0.02900
C3651       C  0.57856501  0.84743356  0.69486201    -0.13300
C3652       C  0.58238084  0.87336988  0.67374124     0.00400
C3653       C  0.56179565  0.89981500  0.67673801    -0.11800
C3654       C  0.53541869  0.89856008  0.69748737     0.02900
C3655       C  0.53048115  0.87103991  0.71484153    -0.11200
H3656       H  0.59470947  0.82741299  0.69356038     0.08500
H3657       H  0.56604668  0.92101688  0.66275152     0.06000
H3658       H  0.50813112  0.86878814  0.72629727     0.05900
C3659       C  0.65403456  0.77723636  0.54897489     0.02900
C3660       C  0.65397678  0.80038437  0.57335087    -0.13300
C3661       C  0.62919049  0.82295741  0.57555004     0.00400
C3662       C  0.60353374  0.82092012  0.55392284    -0.11800
C3663       C  0.60435544  0.79898622  0.52845409     0.02900
C3664       C  0.63064323  0.77939153  0.52546280    -0.11200
H3665       H  0.67349831  0.80130493  0.59012906     0.08500
H3666       H  0.58308864  0.83628664  0.55691768     0.06000
H3667       H  0.63238294  0.76622014  0.00406873     0.05900
O3668       O  0.98439002  0.95416870  0.79520812    -0.80400
O3669       O  0.52026089  0.54287232  0.79616862    -0.80400
O3670       O  0.54635407  0.97977927  0.79433517    -0.80400
O3671       O  0.95756763  0.51579699  0.79713261    -0.80300
O3672       O  0.57279960  0.51768987  0.77585262    -0.80500
O3673       O  0.93061017  0.97891127  0.77704770    -0.80400
O3674       O  0.98237490  0.56958695  0.77805404    -0.80400
O3675       O  0.52116934  0.92730852  0.77476995    -0.80400
C3676       C  0.99800673  0.92850311  0.79408935     1.09300
C3677       C  0.00712618  0.56875358  0.79517588     1.09200
C3678       C  0.57214663  0.49297822  0.79305100     1.09300
C3679       C  0.93185195  0.50217868  0.79624307     1.09200
O3680       O  0.95478252  0.96791508  0.70889973    -0.80400
O3681       O  0.54765011  0.53202325  0.70900495    -0.80500
O3682       O  0.53254405  0.95281151  0.70729444    -0.80400
O3683       O  0.96824737  0.54577687  0.71066014    -0.80400
O3684       O  0.50702248  0.57267509  0.72910981    -0.80400
O3685       O  0.99415321  0.92578890  0.72688876    -0.80400
O3686       O  0.92773277  0.50583193  0.72920596    -0.80300
O3687       O  0.57464845  0.99295647  0.72689686    -0.80400
Co3688     Co  0.96945395  0.96068580  0.75194262     1.51500
Co3689     Co  0.53372220  0.53766545  0.75237468     1.51700
Co3690     Co  0.53987305  0.96652833  0.75066131     1.51600
Co3691     Co  0.96284674  0.53084665  0.75370138     1.51500
O3692       O  0.50155566  0.49911320  0.74797900    -1.42300
C3693       C  0.92936795  0.48224196  0.71013919     1.09200
C3694       C  0.57342254  0.51839039  0.71048299     1.09300
C3695       C  0.51804923  0.92739211  0.70822918     1.09300
C3696       C  0.48175771  0.57152587  0.71242290     1.09200
loop_ 
_geom_bond_atom_site_label_1 
_geom_bond_atom_site_label_2 
_geom_bond_distance 
_geom_bond_site_symmetry_2 
_ccdc_geom_bond_type 
O1            C9   1.223       .  A
O1         Co945   1.937       .  S
O2           C10   1.227       .  A
O2          Co22   1.941       .  S
O3           C11   1.225       .  A
O3          Co23   1.939       .  S
O4           C12   1.225       .  A
O4         Co948   1.937       .  S
O5           C11   1.274       .  A
O5          Co22   2.094       .  S
O6           C12   1.268       .  A
O6         Co945   2.080       .  S
O7           C10   1.275       .  A
O7         Co948   2.088       .  S
O8            C9   1.272       .  A
O8          Co23   2.095       .  S
C9          C371   1.488       .  S
C10         C211   1.486       .  S
C11          C90   1.490       .  S
C12         C407   1.480       .  S
O13          C26   1.227       .  A
O13         Co21   1.936   1_545  S
O14          C27   1.224       .  A
O14        Co946   1.939       .  S
O15          C28   1.223       .  A
O15        Co947   1.934   1_545  S
O16          C29   1.228       .  A
O16         Co24   1.943       .  S
O17          C29   1.274       .  A
O17        Co946   2.088       .  S
O18          C28   1.269       .  A
O18         Co21   2.093   1_545  S
O19          C26   1.271       .  A
O19         Co24   2.085       .  S
O20          C27   1.276       .  A
O20        Co947   2.097   1_545  S
Co21        O925   1.937       .  S
Co21        O930   2.080       .  S
Co21        O949   2.118   1_565  S
Co22        O938   1.939       .  S
Co22        O941   2.088       .  S
Co22         O25   2.113       .  S
Co23        O939   1.934       .  S
Co23        O944   2.097       .  S
Co23         O25   2.110       .  S
Co24        O928   1.937   1_545  S
Co24        O931   2.088   1_545  S
Co24        O949   2.111       .  S
O25        Co945   2.118       .  S
O25        Co948   2.111       .  S
C26         C252   1.482       .  S
C27         C146   1.488       .  S
C28         C353   1.487       .  S
C29         C294   1.488       .  S
O30          C38   1.223       .  A
O30       Co1898   1.934       .  S
O31          C39   1.227       .  A
O31         Co51   1.942       .  S
O32          C40   1.227       .  A
O32         Co52   1.937       .  S
O33          C41   1.223       .  A
O33       Co1901   1.939       .  S
O34          C40   1.269       .  A
O34         Co51   2.082       .  S
O35          C41   1.274       .  A
O35       Co1898   2.095       .  S
O36          C39   1.274       .  A
O36       Co1901   2.091       .  S
O37          C38   1.271       .  A
O37         Co52   2.095       .  S
C38         C108   1.487       .  S
C39         C236   1.489       .  S
C40         C380   1.483       .  S
C41         C335   1.488       .  S
O42          C55   1.226       .  A
O42         Co50   1.940       .  S
O43          C56   1.225       .  A
O43       Co1899   1.936   1_455  S
O44          C57   1.224       .  A
O44       Co1900   1.936       .  S
O45          C58   1.226       .  A
O45         Co53   1.940       .  S
O46          C58   1.273       .  A
O46       Co1899   2.085   1_455  S
O47          C57   1.271       .  A
O47         Co50   2.092       .  S
O48          C55   1.275       .  A
O48         Co53   2.095       .  S
O49          C56   1.271       .  A
O49       Co1900   2.083       .  S
Co50       O1878   1.934   1_455  S
Co50       O1883   2.095   1_455  S
Co50         O54   2.117       .  S
Co51       O1891   1.936       .  S
Co51       O1894   2.085       .  S
Co51       O1902   2.116       .  S
Co52       O1892   1.936       .  S
Co52       O1897   2.083       .  S
Co52       O1902   2.113       .  S
Co53       O1881   1.939   1_455  S
Co53       O1884   2.091   1_455  S
Co53         O54   2.106       .  S
O54       Co1899   2.116   1_455  S
O54       Co1900   2.113       .  S
C55         C216   1.490       .  S
C56         C312   1.479       .  S
C57         C416   1.488       .  S
C58         C151   1.484       .  S
O59          C67   1.228       .  A
O59        Co541   1.931       .  S
O60          C68   1.229       .  A
O60         Co80   1.937       .  S
O61          C69   1.232       .  A
O61         Co81   1.938       .  S
O62          C70   1.226       .  A
O62        Co544   1.930       .  S
O63          C69   1.277       .  A
O63         Co80   2.084       .  S
O64          C70   1.275       .  A
O64        Co541   2.095       .  S
O65          C68   1.278       .  A
O65        Co544   2.087       .  S
O66          C67   1.275       .  A
O66         Co81   2.094       .  S
C67         C133   1.486       .  S
C68         C117   1.486       .  S
C69         C200   1.486       .  S
C70         C348   1.484       .  S
O71          C84   1.222       .  A
O71         Co79   1.940       .  S
O72          C85   1.223       .  A
O72        Co542   1.945       .  S
O73          C86   1.220       .  A
O73        Co543   1.939       .  S
O74          C87   1.225       .  A
O74         Co82   1.946       .  S
O75          C87   1.270       .  A
O75        Co542   2.090       .  S
O76          C86   1.267       .  A
O76         Co79   2.095       .  S
O77          C84   1.267       .  A
O77         Co82   2.094       .  S
O78          C85   1.270       .  A
O78        Co543   2.092       .  S
Co79        O521   1.931   1_554  S
Co79        O526   2.095   1_554  S
Co79        O545   2.122   1_554  S
Co80        O534   1.945       .  S
Co80        O537   2.090       .  S
Co80         O83   2.115       .  S
Co81        O535   1.939       .  S
Co81        O540   2.092       .  S
Co81         O83   2.118       .  S
Co82        O524   1.930   1_554  S
Co82        O527   2.087   1_554  S
Co82        O545   2.119   1_554  S
O83        Co541   2.122       .  S
O83        Co544   2.119       .  S
C84         C317   1.490       .  S
C85         C389   1.487       .  S
C86         C425   1.488       .  S
C87         C245   1.489       .  S
C88         C187   1.481       .  S
C88          C89   1.400       .  A
C88          C93   1.408       .  A
C89          C90   1.385       .  A
C89          H94   1.064       .  S
C90          C91   1.417       .  A
C91          C92   1.415       .  A
C91          H95   1.083       .  S
C92          C99   1.495       .  S
C92          C93   1.412       .  A
C93          H96   1.084       .  S
C97         C119   1.501       .  S
C97          C98   1.408       .  A
C97         C102   1.413       .  A
C98          C99   1.411       .  A
C98         H103   1.084       .  S
C99         C100   1.412       .  A
C100        C101   1.412       .  A
C100        H104   1.084       .  S
C101        C110   1.498       .  S
C101        C102   1.414       .  A
C102        H105   1.084       .  S
C106        C442   1.487       .  S
C106        C107   1.386       .  A
C106        C111   1.416       .  A
C107        C108   1.401       .  A
C107       H1960   1.063       .  S
C108        C109   1.414       .  A
C109        C110   1.414       .  A
C109        H113   1.084       .  S
C110        C111   1.413       .  A
C111        H114   1.084       .  S
H112       C1955   1.063   1_455  S
C115        C269   1.488       .  S
C115        C116   1.394       .  A
C115        C120   1.415       .  A
C116        C117   1.380       .  A
C116        H121   1.058       .  S
C117        C118   1.415       .  A
C118        C119   1.418       .  A
C118        H122   1.083       .  S
C119        C120   1.418       .  A
C120        H123   1.083       .  S
C124        C144   1.499       .  S
C124        C125   1.411       .  A
C124        C129   1.411       .  A
C125        C126   1.414       .  A
C125        H130   1.084       .  S
C126        C153   1.493       .  S
C126        C127   1.411       .  A
C127        C128   1.409       .  A
C127        H131   1.084       .  S
C128        C137   1.497       .  S
C128        C129   1.411       .  A
C129        H132   1.084       .  S
C133        C134   1.400       .  A
C133        C138   1.411       .  A
C134        C135   1.386       .  A
C134        H139   1.066       .  S
C135        C751   1.489       .  S
C135        C136   1.416       .  A
C136        C137   1.416       .  A
C136        H140   1.083       .  S
C137        C138   1.415       .  A
C138        H141   1.084       .  S
C142        C168   1.479       .  S
C142        C143   1.410       .  A
C142        C147   1.397       .  A
C143        C144   1.413       .  A
C143        H148   1.084       .  S
C144        C145   1.417       .  A
C145        C146   1.420       .  A
C145        H149   1.083       .  S
C146        C147   1.383       .  A
C147        H150   1.066       .  S
C151        C152   1.411       .  A
C151        C156   1.385       .  A
C152        C153   1.412       .  A
C152        H157   1.084       .  S
C153        C154   1.414       .  A
C154        C155   1.414       .  A
C154        H158   1.084       .  S
C155       C2291   1.490       .  S
C155        C156   1.398       .  A
C156        H159   1.056       .  S
O160        C168   1.225       .  A
O160       Co180   1.936       .  S
O161       C1093   1.225       .  A
O161       Co181   1.940       .  S
O162        C632   1.224       .  A
O162       Co182   1.937       .  S
O163        C171   1.226       .  A
O163       Co183   1.940       .  S
O164        C170   1.271   1_554  A
O164       Co181   2.091       .  S
O165        C633   1.273       .  A
O165       Co180   2.085       .  S
O166        C169   1.275   1_545  A
O166       Co183   2.095       .  S
O167       C1092   1.270       .  A
O167       Co182   2.082       .  S
C168       O1091   1.270   1_545  A
C169       O1085   1.225       .  A
C169       C1333   1.490       .  S
C170        O624   1.224       .  A
C170        C660   1.487       .  S
C171        O627   1.273   1_554  A
C171        C321   1.484       .  S
O172        C647   1.228       .  A
O172       Co180   1.942       .  S
O173        C186   1.223       .  A
O173       Co181   1.934       .  S
O174        C187   1.228       .  A
O174       Co182   1.937       .  S
O175       C1112   1.223       .  A
O175       Co183   1.940       .  S
O176        C188   1.274       .  A
O176       Co181   2.094       .  S
O177       C1111   1.269   1_545  A
O177       Co180   2.080       .  S
O178        C185   1.274   1_554  A
O178       Co183   2.091       .  S
O179        C648   1.271       .  A
O179       Co182   2.096       .  S
Co180      O1570   2.116       .  S
Co181       O184   2.116   1_554  S
Co182       O646   2.114       .  S
Co183      O1108   2.106   1_554  S
O184      Co1566   2.116       .  S
O184       Co644   2.114       .  S
O184      Co1107   2.106   1_556  S
C185        O634   1.228       .  A
C185        C806   1.489       .  S
C186        O641   1.271   1_554  A
C186        C391   1.487       .  S
C187       O1101   1.269       .  A
C188       O1099   1.223       .  A
C188       C1180   1.487       .  S
C189        C202   1.496       .  S
C189        C190   1.409       .  A
C189        C194   1.411       .  A
C190        C191   1.411       .  A
C190        H195   1.084       .  S
C191        C218   1.498       .  S
C191        C192   1.413       .  A
C192        C193   1.415       .  A
C192        H196   1.084       .  S
C193        C209   1.497       .  S
C193        C194   1.410       .  A
C194        H197   1.084       .  S
C198        C632   1.487       .  S
C198        C199   1.397       .  A
C198        C203   1.413       .  A
C199        C200   1.384       .  A
C199        H204   1.061       .  S
C200        C201   1.413       .  A
C201        C202   1.416       .  A
C201        H205   1.083       .  S
C202        C203   1.416       .  A
C203        H206   1.083       .  S
C207       C1368   1.487       .  S
C207        C208   1.414       .  A
C207        C212   1.398       .  A
C208        C209   1.414       .  A
C208        H213   1.084       .  S
C209        C210   1.415       .  A
C210        C211   1.415       .  A
C210        H214   1.083       .  S
C211        C212   1.385       .  A
C212        H215   1.060       .  S
C216        C217   1.419       .  A
C216        C221   1.386       .  A
C217        C218   1.417       .  A
C217        H222   1.083       .  S
C218        C219   1.413       .  A
C219        C220   1.410       .  A
C219        H223   1.084       .  S
C220        C272   1.480       .  S
C220        C221   1.398       .  A
C221        H224   1.067       .  S
C225        C247   1.495       .  S
C225        C226   1.414       .  A
C225        C230   1.412       .  A
C226        C227   1.411       .  A
C226        H231   1.084       .  S
C227        C238   1.501       .  S
C227        C228   1.411       .  A
C228        C229   1.411       .  A
C228        H232   1.084       .  S
C229        C254   1.496       .  S
C229        C230   1.411       .  A
C230        H233   1.084       .  S
C234       C2310   1.484       .  S
C234        C235   1.399       .  A
C234        C239   1.412       .  A
C235        C236   1.385       .  A
C235       H2088   1.069       .  S
C236        C237   1.418       .  A
C237        C238   1.417       .  A
C237        H241   1.083       .  S
C238        C239   1.416       .  A
C239        H242   1.084       .  S
H240       C2083   1.069       .  S
C243        C288   1.487       .  S
C243        C244   1.403       .  A
C243        C248   1.412       .  A
C244        C245   1.388       .  A
C244        H249   1.066       .  S
C245        C246   1.417       .  A
C246        C247   1.414       .  A
C246        H250   1.083       .  S
C247        C248   1.412       .  A
C248        H251   1.084       .  S
C252        C253   1.410       .  A
C252        C257   1.398       .  A
C253        C254   1.413       .  A
C253        H258   1.084       .  S
C254        C255   1.416       .  A
C255        C256   1.418       .  A
C255        H259   1.083       .  S
C256       C1112   1.487       .  S
C256        C257   1.383       .  A
C257       H1184   1.062       .  S
H260       C1181   1.062       .  S
O261        C269   1.223       .  A
O261       Co281   1.937       .  S
O262        C732   1.227       .  A
O262       Co282   1.941       .  S
O263       C2119   1.225       .  A
O263       Co283   1.939       .  S
O264        C272   1.225       .  A
O264       Co284   1.937       .  S
O265        C271   1.273   1_455  A
O265       Co282   2.093       .  S
O266       C2120   1.269       .  A
O266       Co281   2.081       .  S
O267        C270   1.275       .  A
O267       Co284   2.088       .  S
O268        C731   1.272   1_554  A
O268       Co283   2.096       .  S
C269        O730   1.272       .  A
C270        O724   1.227       .  A
C270        C891   1.486       .  S
C271       O2111   1.225       .  A
C271       C2230   1.490       .  S
C272       O2114   1.269   1_455  A
O273       C2134   1.227       .  A
O273       Co281   1.936       .  S
O274        C287   1.224       .  A
O274       Co282   1.939       .  S
O275        C288   1.222       .  A
O275       Co283   1.934       .  S
O276        C751   1.229       .  A
O276       Co284   1.943       .  S
O277        C289   1.273   1_554  A
O277       Co282   2.087       .  S
O278        C750   1.269       .  A
O278       Co281   2.094       .  S
O279        C286   1.272   1_455  A
O279       Co284   2.086       .  S
O280       C2135   1.275       .  A
O280       Co283   2.095       .  S
Co281      O2133   2.119       .  S
Co282       O747   2.113   1_554  S
Co283      O2595   2.111   1_554  S
Co284       O285   2.111       .  S
O285      Co2129   2.119   1_455  S
O285       Co744   2.113       .  S
O285      Co2593   2.111   1_455  S
C286       O2121   1.227       .  A
C286       C2185   1.483       .  S
C287       O2128   1.275   1_455  A
C287        C308   1.487       .  S
C288        O740   1.269   1_554  A
C289        O738   1.229       .  A
C289        C597   1.489       .  S
C290        C460   1.484       .  S
C290        C291   1.410       .  A
C290        C295   1.400       .  A
C291        C292   1.414       .  A
C291        H296   1.084       .  S
C292        C299   1.497       .  S
C292        C293   1.416       .  A
C293        C294   1.416       .  A
C293        H297   1.083       .  S
C294        C295   1.385       .  A
C295        H298   1.067       .  S
C299        C300   1.409       .  A
C299        C304   1.411       .  A
C300        C301   1.411       .  A
C300        H305   1.084       .  S
C301        C319   1.493       .  S
C301        C302   1.414       .  A
C302        C303   1.411       .  A
C302        H306   1.084       .  S
C303        C310   1.499       .  S
C303        C304   1.411       .  A
C304        H307   1.084       .  S
C308        C309   1.419       .  A
C308        C313   1.383       .  A
C309        C310   1.417       .  A
C309        H314   1.083       .  S
C310        C311   1.413       .  A
C311        C312   1.410       .  A
C311        H315   1.084       .  S
C312        C313   1.397       .  A
C313        H316   1.066       .  S
C317        C318   1.415       .  A
C317        C322   1.398       .  A
C318        C319   1.415       .  A
C318        H323   1.084       .  S
C319        C320   1.412       .  A
C320        C321   1.411       .  A
C320        H324   1.084       .  S
C321        C322   1.385       .  A
C322        H787   1.056       .  S
H325        C784   1.056       .  S
C326        C339   1.497       .  S
C326        C327   1.411       .  A
C326        C331   1.411       .  A
C327        C328   1.412       .  A
C327        H332   1.084       .  S
C328        C355   1.496       .  S
C328        C329   1.415       .  A
C329        C330   1.411       .  A
C329        H333   1.084       .  S
C330        C346   1.501       .  S
C330        C331   1.411       .  A
C331        H334   1.084       .  S
C335        C336   1.383       .  A
C335        C340   1.418       .  A
C336        C337   1.398       .  A
C336        H341   1.062       .  S
C337       C2134   1.483       .  S
C337        C338   1.410       .  A
C338        C339   1.414       .  A
C338        H342   1.084       .  S
C339        C340   1.416       .  A
C340        H343   1.083       .  S
C344        C647   1.489       .  S
C344        C345   1.418       .  A
C344        C349   1.385       .  A
C345        C346   1.417       .  A
C345        H350   1.083       .  S
C346        C347   1.416       .  A
C347        C348   1.412       .  A
C347        H351   1.083       .  S
C348        C349   1.398       .  A
C349        H352   1.069       .  S
C353        C354   1.411       .  A
C353        C358   1.403       .  A
C354        C355   1.411       .  A
C354        H359   1.084       .  S
C355        C356   1.415       .  A
C356        C357   1.417       .  A
C356        H360   1.083       .  S
C357        C445   1.491       .  S
C357        C358   1.388       .  A
C358       H1285   1.066   1_545  S
H361       C1282   1.066       .  S
C362        C393   1.498       .  S
C362        C363   1.412       .  A
C362        C367   1.414       .  A
C363        C364   1.412       .  A
C363        H368   1.084       .  S
C364        C384   1.495       .  S
C364        C365   1.411       .  A
C365        C366   1.408       .  A
C365        H369   1.084       .  S
C366        C373   1.500       .  S
C366        C367   1.413       .  A
C367        H370   1.084       .  S
C371        C372   1.415       .  A
C371        C376   1.394       .  A
C372        C373   1.418       .  A
C372        H377   1.083       .  S
C373        C374   1.417       .  A
C374        C375   1.414       .  A
C374        H378   1.083       .  S
C375       C1383   1.485       .  S
C375        C376   1.380       .  A
C376        H379   1.058       .  S
C380        C381   1.400       .  A
C380        C385   1.409       .  A
C381        C382   1.386       .  A
C381       H2234   1.063       .  S
C382       C2119   1.490       .  S
C382        C383   1.417       .  A
C383        C384   1.415       .  A
C383        H387   1.083       .  S
C384        C385   1.412       .  A
C385        H388   1.084       .  S
H386       C2229   1.063       .  S
C389        C390   1.386       .  A
C389        C394   1.416       .  A
C390        C391   1.402       .  A
C390        H395   1.064       .  S
C391        C392   1.414       .  A
C392        C393   1.414       .  A
C392        H396   1.084       .  S
C393        C394   1.413       .  A
C394        H397   1.084       .  S
C398        C418   1.497       .  S
C398        C399   1.409       .  A
C398        C403   1.411       .  A
C399        C400   1.411       .  A
C399        H404   1.084       .  S
C400        C411   1.498       .  S
C400        C401   1.412       .  A
C401        C402   1.414       .  A
C401        H405   1.084       .  S
C402        C427   1.497       .  S
C402        C403   1.410       .  A
C403        H406   1.084       .  S
C407        C408   1.399       .  A
C407        C412   1.409       .  A
C408        C409   1.385       .  A
C408        H413   1.067       .  S
C409       C1093   1.490       .  S
C409        C410   1.419       .  A
C410        C411   1.417       .  A
C410        H414   1.083       .  S
C411        C412   1.412       .  A
C412        H415   1.084       .  S
C416        C417   1.413       .  A
C416        C421   1.397       .  A
C417        C418   1.416       .  A
C417        H422   1.083       .  S
C418        C419   1.416       .  A
C419        C420   1.413       .  A
C419        H423   1.083       .  S
C420        C461   1.487       .  S
C420        C421   1.384       .  A
C421        H424   1.061       .  S
C425        C426   1.414       .  A
C425        C430   1.398       .  A
C426        C427   1.414       .  A
C426        H431   1.084       .  S
C427        C428   1.414       .  A
C428        C429   1.414       .  A
C428        H432   1.083       .  S
C429        C732   1.486       .  S
C429        C430   1.385       .  A
C430        H895   1.059       .  S
H433        C892   1.059       .  S
O434        C442   1.223       .  A
O434       Co454   1.945       .  S
O435       C2291   1.222       .  A
O435       Co455   1.940       .  S
O436       C1368   1.220       .  A
O436       Co456   1.939       .  S
O437        C445   1.225       .  A
O437       Co457   1.946       .  S
O438        C444   1.267   1_545  A
O438       Co455   2.094       .  S
O439       C1369   1.270       .  A
O439       Co454   2.092       .  S
O440        C443   1.267       .  A
O440       Co457   2.093       .  S
O441       C2290   1.270   1_455  A
O441       Co456   2.090       .  S
C442       O2289   1.270       .  A
C443       O2283   1.222       .  A
C443       C2003   1.490       .  S
C444       O1360   1.220       .  A
C444       C1131   1.487       .  S
C445       O1363   1.270   1_545  A
O446       C1383   1.229       .  A
O446       Co454   1.937       .  S
O447        C460   1.228       .  A
O447       Co455   1.931       .  S
O448        C461   1.232       .  A
O448       Co456   1.938       .  S
O449       C2310   1.226       .  A
O449       Co457   1.930       .  S
O450        C462   1.275   1_455  A
O450       Co455   2.095       .  S
O451       C2309   1.277       .  A
O451       Co454   2.085       .  S
O452        C459   1.278   1_545  A
O452       Co457   2.086       .  S
O453       C1384   1.274       .  A
O453       Co456   2.092       .  S
Co454      O3230   2.113       .  S
Co455       O458   2.120   1_545  S
Co456      O1382   2.119       .  S
Co457      O2306   2.120   1_545  S
O458      Co3226   2.113   1_455  S
O458      Co1380   2.119       .  S
O458      Co2305   2.120   1_465  S
C459       O1370   1.229       .  A
C459       C1299   1.485       .  S
C460       O1377   1.274   1_545  A
C461       O2299   1.277   1_455  A
C462       O2297   1.226       .  A
C462       C2082   1.484       .  S
O463        C471   1.223       .  A
O463      Co1407   1.937       .  S
O464        C472   1.227       .  A
O464       Co484   1.941       .  S
O465        C473   1.225       .  A
O465       Co485   1.939       .  S
O466        C474   1.225       .  A
O466      Co1410   1.937       .  S
O467        C473   1.274       .  A
O467       Co484   2.094       .  S
O468        C474   1.268       .  A
O468      Co1407   2.080       .  S
O469        C472   1.275       .  A
O469      Co1410   2.088       .  S
O470        C471   1.272       .  A
O470       Co485   2.095       .  S
C471        C833   1.488       .  S
C472        C673   1.486       .  S
C473        C552   1.490       .  S
C474        C869   1.480       .  S
O475        C488   1.227       .  A
O475       Co483   1.936   1_545  S
O476        C489   1.224       .  A
O476      Co1408   1.939       .  S
O477        C490   1.223       .  A
O477      Co1409   1.934   1_545  S
O478        C491   1.228       .  A
O478       Co486   1.943       .  S
O479        C491   1.274       .  A
O479      Co1408   2.088       .  S
O480        C490   1.269       .  A
O480       Co483   2.093   1_545  S
O481        C488   1.271       .  A
O481       Co486   2.085       .  S
O482        C489   1.276       .  A
O482      Co1409   2.097   1_545  S
Co483      O1387   1.937       .  S
Co483      O1392   2.080       .  S
Co483      O1411   2.118   1_565  S
Co484      O1400   1.939       .  S
Co484      O1403   2.088       .  S
Co484       O487   2.113       .  S
Co485      O1401   1.934       .  S
Co485      O1406   2.097       .  S
Co485       O487   2.110       .  S
Co486      O1390   1.937   1_545  S
Co486      O1393   2.088   1_545  S
Co486      O1411   2.111       .  S
O487      Co1407   2.118       .  S
O487      Co1410   2.111       .  S
C488        C714   1.482       .  S
C489        C608   1.488       .  S
C490        C815   1.487       .  S
C491        C756   1.488       .  S
O492        C500   1.223       .  A
O492      Co2360   1.934       .  S
O493        C501   1.228       .  A
O493       Co513   1.942       .  S
O494        C502   1.227       .  A
O494       Co514   1.937       .  S
O495        C503   1.223       .  A
O495      Co2363   1.939       .  S
O496        C502   1.269       .  A
O496       Co513   2.082       .  S
O497        C503   1.274       .  A
O497      Co2360   2.095       .  S
O498        C501   1.274       .  A
O498      Co2363   2.091       .  S
O499        C500   1.271       .  A
O499       Co514   2.095       .  S
C500        C570   1.487       .  S
C501        C698   1.489       .  S
C502        C842   1.483       .  S
C503        C797   1.488       .  S
O504        C517   1.226       .  A
O504       Co512   1.940       .  S
O505        C518   1.225       .  A
O505      Co2361   1.936   1_455  S
O506        C519   1.224       .  A
O506      Co2362   1.936       .  S
O507        C520   1.226       .  A
O507       Co515   1.940       .  S
O508        C520   1.273       .  A
O508      Co2361   2.085   1_455  S
O509        C519   1.271       .  A
O509       Co512   2.092       .  S
O510        C517   1.275       .  A
O510       Co515   2.095       .  S
O511        C518   1.271       .  A
O511      Co2362   2.083       .  S
Co512      O2340   1.934   1_455  S
Co512      O2345   2.095   1_455  S
Co512       O516   2.117       .  S
Co513      O2353   1.936       .  S
Co513      O2356   2.085       .  S
Co513      O2364   2.116       .  S
Co514      O2354   1.936       .  S
Co514      O2359   2.083       .  S
Co514      O2364   2.113       .  S
Co515      O2343   1.939   1_455  S
Co515      O2346   2.091   1_455  S
Co515       O516   2.106       .  S
O516      Co2361   2.116   1_455  S
O516      Co2362   2.113       .  S
C517        C678   1.490       .  S
C518        C774   1.479       .  S
C519        C878   1.488       .  S
C520        C613   1.484       .  S
O521        C529   1.228       .  A
O522        C530   1.229       .  A
O522       Co542   1.937   1_556  S
O523        C531   1.232       .  A
O523       Co543   1.938   1_556  S
O524        C532   1.226       .  A
O525        C531   1.277       .  A
O525       Co542   2.084   1_556  S
O526        C532   1.275       .  A
O527        C530   1.278       .  A
O528        C529   1.275       .  A
O528       Co543   2.094   1_556  S
C529        C595   1.486       .  S
C530        C579   1.486       .  S
C531        C662   1.486       .  S
C532        C810   1.484       .  S
O533        C546   1.222       .  A
O533       Co541   1.940       .  S
O534        C547   1.223       .  A
O535        C548   1.220       .  A
O536        C549   1.225       .  A
O536       Co544   1.946       .  S
O537        C549   1.270       .  A
O538        C548   1.267       .  A
O538       Co541   2.095       .  S
O539        C546   1.267       .  A
O539       Co544   2.094       .  S
O540        C547   1.270       .  A
Co542       O545   2.115   1_554  S
Co543       O545   2.118   1_554  S
C546        C779   1.490       .  S
C547        C851   1.487       .  S
C548        C887   1.488       .  S
C549        C707   1.489       .  S
C550        C649   1.481       .  S
C550        C551   1.400       .  A
C550        C555   1.408       .  A
C551        C552   1.385       .  A
C551        H556   1.064       .  S
C552        C553   1.417       .  A
C553        C554   1.415       .  A
C553        H557   1.083       .  S
C554        C561   1.495       .  S
C554        C555   1.412       .  A
C555        H558   1.084       .  S
C559        C581   1.501       .  S
C559        C560   1.408       .  A
C559        C564   1.413       .  A
C560        C561   1.411       .  A
C560        H565   1.084       .  S
C561        C562   1.412       .  A
C562        C563   1.412       .  A
C562        H566   1.084       .  S
C563        C572   1.498       .  S
C563        C564   1.414       .  A
C564        H567   1.084       .  S
C568        C904   1.487       .  S
C568        C569   1.386       .  A
C568        C573   1.416       .  A
C569        C570   1.401       .  A
C569       H2422   1.063       .  S
C570        C571   1.414       .  A
C571        C572   1.414       .  A
C571        H575   1.084       .  S
C572        C573   1.413       .  A
C573        H576   1.084       .  S
H574       C2417   1.063   1_455  S
C577        C731   1.488       .  S
C577        C578   1.394       .  A
C577        C582   1.415       .  A
C578        C579   1.380       .  A
C578        H583   1.058       .  S
C579        C580   1.415       .  A
C580        C581   1.418       .  A
C580        H584   1.083       .  S
C581        C582   1.418       .  A
C582        H585   1.083       .  S
C586        C606   1.499       .  S
C586        C587   1.411       .  A
C586        C591   1.411       .  A
C587        C588   1.414       .  A
C587        H592   1.084       .  S
C588        C615   1.493       .  S
C588        C589   1.411       .  A
C589        C590   1.409       .  A
C589        H593   1.084       .  S
C590        C599   1.497       .  S
C590        C591   1.411       .  A
C591        H594   1.084       .  S
C595        C596   1.400       .  A
C595        C600   1.411       .  A
C596        C597   1.386       .  A
C596        H601   1.066   1_556  S
C597        C598   1.416       .  A
C598        C599   1.416       .  A
C598        H602   1.083       .  S
C599        C600   1.415       .  A
C600        H603   1.084       .  S
C604        C630   1.479       .  S
C604        C605   1.410       .  A
C604        C609   1.397       .  A
C605        C606   1.413       .  A
C605        H610   1.084       .  S
C606        C607   1.417       .  A
C607        C608   1.420       .  A
C607        H611   1.083       .  S
C608        C609   1.383       .  A
C609        H612   1.066       .  S
C613        C614   1.411       .  A
C613        C618   1.385       .  A
C614        C615   1.412       .  A
C614        H619   1.084       .  S
C615        C616   1.414       .  A
C616        C617   1.414       .  A
C616        H620   1.084       .  S
C617       C2753   1.490       .  S
C617        C618   1.398       .  A
C618        H621   1.056       .  S
O622        C630   1.225       .  A
O622       Co642   1.936       .  S
O623       C1555   1.225       .  A
O623       Co643   1.940       .  S
O624       Co644   1.937       .  S
O625        C633   1.226       .  A
O625       Co645   1.940       .  S
O626        C632   1.271       .  A
O626       Co643   2.091       .  S
O627       Co642   2.085       .  S
O628        C631   1.275   1_545  A
O628       Co645   2.095       .  S
O629       C1554   1.270       .  A
O629       Co644   2.082       .  S
C630       O1553   1.270   1_545  A
C631       O1547   1.225       .  A
C631       C1795   1.490       .  S
C633        C783   1.484       .  S
O634       Co642   1.942       .  S
O635        C648   1.223       .  A
O635       Co643   1.934       .  S
O636        C649   1.228       .  A
O636       Co644   1.937       .  S
O637       C1574   1.223       .  A
O637       Co645   1.940       .  S
O638        C650   1.274       .  A
O638       Co643   2.094       .  S
O639       C1573   1.269   1_545  A
O639       Co642   2.080       .  S
O640        C647   1.274       .  A
O640       Co645   2.091       .  S
O641       Co644   2.096       .  S
Co642      O1108   2.116       .  S
Co643       O646   2.116       .  S
Co645      O1570   2.106       .  S
O646      Co1104   2.116       .  S
O646      Co1569   2.106       .  S
C648        C853   1.487       .  S
C649       O1563   1.269       .  A
C650       O1561   1.223       .  A
C650       C1642   1.487       .  S
C651        C664   1.496       .  S
C651        C652   1.409       .  A
C651        C656   1.411       .  A
C652        C653   1.411       .  A
C652        H657   1.084       .  S
C653        C680   1.498       .  S
C653        C654   1.413       .  A
C654        C655   1.415       .  A
C654        H658   1.084       .  S
C655        C671   1.497       .  S
C655        C656   1.410       .  A
C656        H659   1.084       .  S
C660        C661   1.397       .  A
C660        C665   1.413       .  A
C661        C662   1.384       .  A
C661        H666   1.061       .  S
C662        C663   1.413       .  A
C663        C664   1.416       .  A
C663        H667   1.083       .  S
C664        C665   1.416       .  A
C665        H668   1.083       .  S
C669       C1830   1.487       .  S
C669        C670   1.414       .  A
C669        C674   1.398       .  A
C670        C671   1.414       .  A
C670        H675   1.084       .  S
C671        C672   1.415       .  A
C672        C673   1.415       .  A
C672        H676   1.083       .  S
C673        C674   1.385       .  A
C674        H677   1.060       .  S
C678        C679   1.419       .  A
C678        C683   1.386       .  A
C679        C680   1.417       .  A
C679        H684   1.083       .  S
C680        C681   1.413       .  A
C681        C682   1.410       .  A
C681        H685   1.084       .  S
C682        C734   1.480       .  S
C682        C683   1.398       .  A
C683        H686   1.067       .  S
C687        C709   1.495       .  S
C687        C688   1.415       .  A
C687        C692   1.412       .  A
C688        C689   1.411       .  A
C688        H693   1.084       .  S
C689        C700   1.501       .  S
C689        C690   1.411       .  A
C690        C691   1.411       .  A
C690        H694   1.084       .  S
C691        C716   1.496       .  S
C691        C692   1.411       .  A
C692        H695   1.084       .  S
C696       C2772   1.484       .  S
C696        C697   1.399       .  A
C696        C701   1.412       .  A
C697        C698   1.385       .  A
C697       H2550   1.069       .  S
C698        C699   1.418       .  A
C699        C700   1.417       .  A
C699        H703   1.083       .  S
C700        C701   1.416       .  A
C701        H704   1.084       .  S
H702       C2545   1.069       .  S
C705        C750   1.487       .  S
C705        C706   1.403       .  A
C705        C710   1.412       .  A
C706        C707   1.388       .  A
C706        H711   1.066       .  S
C707        C708   1.417       .  A
C708        C709   1.414       .  A
C708        H712   1.083       .  S
C709        C710   1.412       .  A
C710        H713   1.084       .  S
C714        C715   1.410       .  A
C714        C719   1.398       .  A
C715        C716   1.413       .  A
C715        H720   1.084       .  S
C716        C717   1.416       .  A
C717        C718   1.418       .  A
C717        H721   1.083       .  S
C718       C1574   1.487       .  S
C718        C719   1.383       .  A
C719       H1646   1.062       .  S
H722       C1643   1.062       .  S
O723        C731   1.223       .  A
O723       Co743   1.937       .  S
O724       Co744   1.941       .  S
O725       C2581   1.225       .  A
O725       Co745   1.939       .  S
O726        C734   1.225       .  A
O726       Co746   1.937       .  S
O727        C733   1.273   1_455  A
O727       Co744   2.093       .  S
O728       C2582   1.269       .  A
O728       Co743   2.081       .  S
O729        C732   1.275   1_556  A
O729       Co746   2.088       .  S
O730       Co745   2.096       .  S
C733       O2573   1.225       .  A
C733       C2692   1.490       .  S
C734       O2576   1.269   1_455  A
O735       C2596   1.227       .  A
O735       Co743   1.936       .  S
O736        C749   1.224       .  A
O736       Co744   1.939       .  S
O737        C750   1.222       .  A
O737       Co745   1.934       .  S
O738       Co746   1.943       .  S
O739        C751   1.273       .  A
O739       Co744   2.087       .  S
O740       Co743   2.094       .  S
O741        C748   1.272   1_455  A
O741       Co746   2.086       .  S
O742       C2597   1.275       .  A
O742       Co745   2.095       .  S
Co743      O2595   2.119       .  S
Co745      O2133   2.111       .  S
Co746       O747   2.111       .  S
O747      Co2591   2.119   1_455  S
O747      Co2131   2.111   1_456  S
C748       O2583   1.227       .  A
C748       C2647   1.483       .  S
C749       O2590   1.275   1_455  A
C749        C770   1.487       .  S
C752        C922   1.484       .  S
C752        C753   1.410       .  A
C752        C757   1.400       .  A
C753        C754   1.414       .  A
C753        H758   1.084       .  S
C754        C761   1.497       .  S
C754        C755   1.416       .  A
C755        C756   1.416       .  A
C755        H759   1.083       .  S
C756        C757   1.385       .  A
C757        H760   1.067       .  S
C761        C762   1.409       .  A
C761        C766   1.411       .  A
C762        C763   1.411       .  A
C762        H767   1.084       .  S
C763        C781   1.493       .  S
C763        C764   1.414       .  A
C764        C765   1.411       .  A
C764        H768   1.084       .  S
C765        C772   1.499       .  S
C765        C766   1.411       .  A
C766        H769   1.084       .  S
C770        C771   1.419       .  A
C770        C775   1.383       .  A
C771        C772   1.417       .  A
C771        H776   1.083       .  S
C772        C773   1.413       .  A
C773        C774   1.410       .  A
C773        H777   1.084       .  S
C774        C775   1.397       .  A
C775        H778   1.066       .  S
C779        C780   1.415       .  A
C779        C784   1.398       .  A
C780        C781   1.415       .  A
C780        H785   1.084       .  S
C781        C782   1.412       .  A
C782        C783   1.411       .  A
C782        H786   1.084       .  S
C783        C784   1.385       .  A
C788        C801   1.497       .  S
C788        C789   1.411       .  A
C788        C793   1.411       .  A
C789        C790   1.412       .  A
C789        H794   1.084       .  S
C790        C817   1.496       .  S
C790        C791   1.415       .  A
C791        C792   1.411       .  A
C791        H795   1.084       .  S
C792        C808   1.501       .  S
C792        C793   1.411       .  A
C793        H796   1.084       .  S
C797        C798   1.383       .  A
C797        C802   1.418       .  A
C798        C799   1.398       .  A
C798        H803   1.062       .  S
C799       C2596   1.483       .  S
C799        C800   1.410       .  A
C800        C801   1.414       .  A
C800        H804   1.084       .  S
C801        C802   1.416       .  A
C802        H805   1.083       .  S
C806        C807   1.418       .  A
C806        C811   1.385       .  A
C807        C808   1.417       .  A
C807        H812   1.083       .  S
C808        C809   1.416       .  A
C809        C810   1.412       .  A
C809        H813   1.083       .  S
C810        C811   1.398       .  A
C811        H814   1.069   1_556  S
C815        C816   1.411       .  A
C815        C820   1.403       .  A
C816        C817   1.411       .  A
C816        H821   1.084       .  S
C817        C818   1.415       .  A
C818        C819   1.417       .  A
C818        H822   1.083       .  S
C819        C907   1.491       .  S
C819        C820   1.388       .  A
C820       H1747   1.066   1_545  S
H823       C1744   1.066       .  S
C824        C855   1.498       .  S
C824        C825   1.412       .  A
C824        C829   1.414       .  A
C825        C826   1.412       .  A
C825        H830   1.084       .  S
C826        C846   1.495       .  S
C826        C827   1.411       .  A
C827        C828   1.408       .  A
C827        H831   1.084       .  S
C828        C835   1.500       .  S
C828        C829   1.413       .  A
C829        H832   1.084       .  S
C833        C834   1.415       .  A
C833        C838   1.394       .  A
C834        C835   1.418       .  A
C834        H839   1.083       .  S
C835        C836   1.417       .  A
C836        C837   1.414       .  A
C836        H840   1.083       .  S
C837       C1845   1.485       .  S
C837        C838   1.380       .  A
C838        H841   1.058       .  S
C842        C843   1.400       .  A
C842        C847   1.409       .  A
C843        C844   1.386       .  A
C843       H2696   1.063       .  S
C844       C2581   1.490       .  S
C844        C845   1.417       .  A
C845        C846   1.415       .  A
C845        H849   1.083       .  S
C846        C847   1.412       .  A
C847        H850   1.084       .  S
H848       C2691   1.063       .  S
C851        C852   1.386       .  A
C851        C856   1.416       .  A
C852        C853   1.402       .  A
C852        H857   1.064       .  S
C853        C854   1.414       .  A
C854        C855   1.414       .  A
C854        H858   1.084       .  S
C855        C856   1.413       .  A
C856        H859   1.084       .  S
C860        C880   1.497       .  S
C860        C861   1.409       .  A
C860        C865   1.411       .  A
C861        C862   1.411       .  A
C861        H866   1.084       .  S
C862        C873   1.498       .  S
C862        C863   1.412       .  A
C863        C864   1.414       .  A
C863        H867   1.084       .  S
C864        C889   1.497       .  S
C864        C865   1.410       .  A
C865        H868   1.084       .  S
C869        C870   1.399       .  A
C869        C874   1.409       .  A
C870        C871   1.385       .  A
C870        H875   1.067       .  S
C871       C1555   1.490       .  S
C871        C872   1.419       .  A
C872        C873   1.417       .  A
C872        H876   1.083       .  S
C873        C874   1.412       .  A
C874        H877   1.084       .  S
C878        C879   1.413       .  A
C878        C883   1.397       .  A
C879        C880   1.416       .  A
C879        H884   1.083       .  S
C880        C881   1.416       .  A
C881        C882   1.413       .  A
C881        H885   1.083       .  S
C882        C923   1.487       .  S
C882        C883   1.384       .  A
C883        H886   1.061       .  S
C887        C888   1.414       .  A
C887        C892   1.398       .  A
C888        C889   1.414       .  A
C888        H893   1.084       .  S
C889        C890   1.414       .  A
C890        C891   1.414       .  A
C890        H894   1.083       .  S
C891        C892   1.385       .  A
O896        C904   1.223       .  A
O896       Co916   1.945       .  S
O897       C2753   1.222       .  A
O897       Co917   1.940       .  S
O898       C1830   1.220       .  A
O898       Co918   1.939       .  S
O899        C907   1.225       .  A
O899       Co919   1.946       .  S
O900        C906   1.267   1_545  A
O900       Co917   2.094       .  S
O901       C1831   1.270       .  A
O901       Co916   2.092       .  S
O902        C905   1.267       .  A
O902       Co919   2.093       .  S
O903       C2752   1.270   1_455  A
O903       Co918   2.090       .  S
C904       O2751   1.270       .  A
C905       O2745   1.222       .  A
C905       C2465   1.490       .  S
C906       O1822   1.220       .  A
C906       C1593   1.487       .  S
C907       O1825   1.270   1_545  A
O908       C1845   1.229       .  A
O908       Co916   1.937       .  S
O909        C922   1.228       .  A
O909       Co917   1.931       .  S
O910        C923   1.232       .  A
O910       Co918   1.938       .  S
O911       C2772   1.226       .  A
O911       Co919   1.930       .  S
O912        C924   1.275   1_455  A
O912       Co917   2.095       .  S
O913       C2771   1.277       .  A
O913       Co916   2.085       .  S
O914        C921   1.278   1_545  A
O914       Co919   2.086       .  S
O915       C1846   1.274       .  A
O915       Co918   2.092       .  S
Co916      O3692   2.113       .  S
Co917       O920   2.120   1_545  S
Co918      O1844   2.119       .  S
Co919      O2768   2.120   1_545  S
O920      Co3688   2.113   1_455  S
O920      Co1842   2.119       .  S
O920      Co2767   2.120   1_465  S
C921       O1832   1.229       .  A
C921       C1761   1.485       .  S
C922       O1839   1.274   1_545  A
C923       O2761   1.277   1_455  A
C924       O2759   1.226       .  A
C924       C2544   1.484       .  S
O925        C933   1.223       .  A
O926        C934   1.227       .  A
O926       Co946   1.941   1_565  S
O927        C935   1.225       .  A
O927       Co947   1.939       .  S
O928        C936   1.225       .  A
O929        C935   1.274       .  A
O929       Co946   2.094   1_565  S
O930        C936   1.268       .  A
O931        C934   1.275       .  A
O932        C933   1.272       .  A
O932       Co947   2.095       .  S
C933       C1295   1.488       .  S
C934       C1135   1.486       .  S
C935       C1014   1.490       .  S
C936       C1331   1.480       .  S
O937        C950   1.227       .  A
O937       Co945   1.936       .  S
O938        C951   1.224       .  A
O939        C952   1.223       .  A
O940        C953   1.228       .  A
O940       Co948   1.943       .  S
O941        C953   1.274       .  A
O942        C952   1.269       .  A
O942       Co945   2.093       .  S
O943        C950   1.271       .  A
O943       Co948   2.085       .  S
O944        C951   1.276       .  A
Co946       O949   2.113       .  S
Co947       O949   2.110   1_565  S
C950       C1176   1.482       .  S
C951       C1070   1.488       .  S
C952       C1277   1.487       .  S
C953       C1218   1.488       .  S
O954        C962   1.223       .  A
O954      Co2822   1.934       .  S
O955        C963   1.227       .  A
O955       Co975   1.942       .  S
O956        C964   1.227       .  A
O956       Co976   1.937       .  S
O957        C965   1.223       .  A
O957      Co2825   1.939       .  S
O958        C964   1.269       .  A
O958       Co975   2.082       .  S
O959        C965   1.274       .  A
O959      Co2822   2.095       .  S
O960        C963   1.274       .  A
O960      Co2825   2.091       .  S
O961        C962   1.271       .  A
O961       Co976   2.095       .  S
C962       C1032   1.487       .  S
C963       C1160   1.489       .  S
C964       C1304   1.483       .  S
C965       C1259   1.488       .  S
O966        C979   1.226       .  A
O966       Co974   1.940       .  S
O967        C980   1.225       .  A
O967      Co2823   1.936   1_455  S
O968        C981   1.224       .  A
O968      Co2824   1.936       .  S
O969        C982   1.226       .  A
O969       Co977   1.940       .  S
O970        C982   1.273       .  A
O970      Co2823   2.085   1_455  S
O971        C981   1.271       .  A
O971       Co974   2.092       .  S
O972        C979   1.275       .  A
O972       Co977   2.095       .  S
O973        C980   1.271       .  A
O973      Co2824   2.083       .  S
Co974      O2802   1.934   1_455  S
Co974      O2807   2.095   1_455  S
Co974       O978   2.117       .  S
Co975      O2815   1.936       .  S
Co975      O2818   2.085       .  S
Co975      O2826   2.116       .  S
Co976      O2816   1.936       .  S
Co976      O2821   2.083       .  S
Co976      O2826   2.113       .  S
Co977      O2805   1.939   1_455  S
Co977      O2808   2.091   1_455  S
Co977       O978   2.106       .  S
O978      Co2823   2.116   1_455  S
O978      Co2824   2.113       .  S
C979       C1140   1.490       .  S
C980       C1236   1.479       .  S
C981       C1340   1.488       .  S
C982       C1075   1.484       .  S
O983        C991   1.228       .  A
O983      Co1465   1.931       .  S
O984        C992   1.229       .  A
O984      Co1004   1.937       .  S
O985        C993   1.232       .  A
O985      Co1005   1.938       .  S
O986        C994   1.226       .  A
O986      Co1468   1.930       .  S
O987        C993   1.277       .  A
O987      Co1004   2.084       .  S
O988        C994   1.275       .  A
O988      Co1465   2.095       .  S
O989        C992   1.278       .  A
O989      Co1468   2.087       .  S
O990        C991   1.275       .  A
O990      Co1005   2.094       .  S
C991       C1057   1.486       .  S
C992       C1041   1.486       .  S
C993       C1124   1.486       .  S
C994       C1272   1.484       .  S
O995       C1008   1.222       .  A
O995      Co1003   1.940       .  S
O996       C1009   1.223       .  A
O996      Co1466   1.945       .  S
O997       C1010   1.220       .  A
O997      Co1467   1.939       .  S
O998       C1011   1.225       .  A
O998      Co1006   1.946       .  S
O999       C1011   1.270       .  A
O999      Co1466   2.090       .  S
O1000      C1010   1.267       .  A
O1000     Co1003   2.095       .  S
O1001      C1008   1.267       .  A
O1001     Co1006   2.094       .  S
O1002      C1009   1.270       .  A
O1002     Co1467   2.092       .  S
Co1003     O1445   1.931   1_554  S
Co1003     O1450   2.095   1_554  S
Co1003     O1469   2.122   1_554  S
Co1004     O1458   1.945       .  S
Co1004     O1461   2.090       .  S
Co1004     O1007   2.115       .  S
Co1005     O1459   1.939       .  S
Co1005     O1464   2.092       .  S
Co1005     O1007   2.118       .  S
Co1006     O1448   1.930   1_554  S
Co1006     O1451   2.087   1_554  S
Co1006     O1469   2.119   1_554  S
O1007     Co1465   2.122       .  S
O1007     Co1468   2.119       .  S
C1008      C1241   1.490       .  S
C1009      C1313   1.487       .  S
C1010      C1349   1.488       .  S
C1011      C1169   1.489       .  S
C1012      C1111   1.481       .  S
C1012      C1013   1.400       .  A
C1012      C1017   1.408       .  A
C1013      C1014   1.385       .  A
C1013      H1018   1.064       .  S
C1014      C1015   1.417       .  A
C1015      C1016   1.415       .  A
C1015      H1019   1.083       .  S
C1016      C1023   1.495       .  S
C1016      C1017   1.412       .  A
C1017      H1020   1.084       .  S
C1021      C1043   1.501       .  S
C1021      C1022   1.408       .  A
C1021      C1026   1.413       .  A
C1022      C1023   1.411       .  A
C1022      H1027   1.084       .  S
C1023      C1024   1.412       .  A
C1024      C1025   1.412       .  A
C1024      H1028   1.084       .  S
C1025      C1034   1.498       .  S
C1025      C1026   1.414       .  A
C1026      H1029   1.084       .  S
C1030      C1366   1.487       .  S
C1030      C1031   1.386       .  A
C1030      C1035   1.416       .  A
C1031      C1032   1.401       .  A
C1031      H2884   1.063       .  S
C1032      C1033   1.414       .  A
C1033      C1034   1.414       .  A
C1033      H1037   1.084       .  S
C1034      C1035   1.413       .  A
C1035      H1038   1.084       .  S
H1036      C2879   1.063   1_455  S
C1039      C1193   1.488       .  S
C1039      C1040   1.394       .  A
C1039      C1044   1.415       .  A
C1040      C1041   1.380       .  A
C1040      H1045   1.058       .  S
C1041      C1042   1.415       .  A
C1042      C1043   1.418       .  A
C1042      H1046   1.083       .  S
C1043      C1044   1.418       .  A
C1044      H1047   1.083       .  S
C1048      C1068   1.499       .  S
C1048      C1049   1.411       .  A
C1048      C1053   1.411       .  A
C1049      C1050   1.414       .  A
C1049      H1054   1.084       .  S
C1050      C1077   1.493       .  S
C1050      C1051   1.411       .  A
C1051      C1052   1.409       .  A
C1051      H1055   1.084       .  S
C1052      C1061   1.497       .  S
C1052      C1053   1.411       .  A
C1053      H1056   1.084       .  S
C1057      C1058   1.400       .  A
C1057      C1062   1.411       .  A
C1058      C1059   1.386       .  A
C1058      H1063   1.066       .  S
C1059      C1675   1.489       .  S
C1059      C1060   1.416       .  A
C1060      C1061   1.416       .  A
C1060      H1064   1.083       .  S
C1061      C1062   1.415       .  A
C1062      H1065   1.084       .  S
C1066      C1092   1.479       .  S
C1066      C1067   1.410       .  A
C1066      C1071   1.397       .  A
C1067      C1068   1.413       .  A
C1067      H1072   1.084       .  S
C1068      C1069   1.417       .  A
C1069      C1070   1.420       .  A
C1069      H1073   1.083       .  S
C1070      C1071   1.383       .  A
C1071      H1074   1.066       .  S
C1075      C1076   1.411       .  A
C1075      C1080   1.385       .  A
C1076      C1077   1.412       .  A
C1076      H1081   1.084       .  S
C1077      C1078   1.414       .  A
C1078      C1079   1.414       .  A
C1078      H1082   1.084       .  S
C1079      C3215   1.490       .  S
C1079      C1080   1.398       .  A
C1080      H1083   1.056       .  S
O1084      C1092   1.225       .  A
O1084     Co1104   1.936       .  S
O1085     Co1105   1.940       .  S
O1086      C1556   1.224       .  A
O1086     Co1106   1.937       .  S
O1087      C1095   1.226       .  A
O1087     Co1107   1.940       .  S
O1088      C1094   1.271   1_554  A
O1088     Co1105   2.091       .  S
O1089      C1557   1.273       .  A
O1089     Co1104   2.085       .  S
O1090      C1093   1.275       .  A
O1090     Co1107   2.095       .  S
O1091     Co1106   2.082       .  S
C1094      O1548   1.224       .  A
C1094      C1584   1.487       .  S
C1095      O1551   1.273   1_554  A
C1095      C1245   1.484       .  S
O1096      C1571   1.228       .  A
O1096     Co1104   1.942       .  S
O1097      C1110   1.223       .  A
O1097     Co1105   1.934       .  S
O1098      C1111   1.228       .  A
O1098     Co1106   1.937       .  S
O1099     Co1107   1.940       .  S
O1100      C1112   1.274   1_565  A
O1100     Co1105   2.094       .  S
O1101     Co1104   2.080       .  S
O1102      C1109   1.274   1_554  A
O1102     Co1107   2.091       .  S
O1103      C1572   1.271       .  A
O1103     Co1106   2.096       .  S
Co1105     O1108   2.116   1_564  S
Co1106     O1570   2.114   1_565  S
O1108     Co1568   2.114   1_545  S
C1109      O1558   1.228       .  A
C1109      C1730   1.489       .  S
C1110      O1565   1.271   1_554  A
C1110      C1315   1.487       .  S
C1113      C1126   1.496       .  S
C1113      C1114   1.409       .  A
C1113      C1118   1.411       .  A
C1114      C1115   1.411       .  A
C1114      H1119   1.084       .  S
C1115      C1142   1.498       .  S
C1115      C1116   1.413       .  A
C1116      C1117   1.415       .  A
C1116      H1120   1.084       .  S
C1117      C1133   1.497       .  S
C1117      C1118   1.410       .  A
C1118      H1121   1.084       .  S
C1122      C1556   1.487       .  S
C1122      C1123   1.397       .  A
C1122      C1127   1.413       .  A
C1123      C1124   1.384       .  A
C1123      H1128   1.061       .  S
C1124      C1125   1.413       .  A
C1125      C1126   1.416       .  A
C1125      H1129   1.083       .  S
C1126      C1127   1.416       .  A
C1127      H1130   1.083       .  S
C1131      C1132   1.414       .  A
C1131      C1136   1.398       .  A
C1132      C1133   1.414       .  A
C1132      H1137   1.084       .  S
C1133      C1134   1.415       .  A
C1134      C1135   1.415       .  A
C1134      H1138   1.083       .  S
C1135      C1136   1.385       .  A
C1136      H1139   1.060       .  S
C1140      C1141   1.419       .  A
C1140      C1145   1.386       .  A
C1141      C1142   1.417       .  A
C1141      H1146   1.083       .  S
C1142      C1143   1.413       .  A
C1143      C1144   1.410       .  A
C1143      H1147   1.084       .  S
C1144      C1196   1.480       .  S
C1144      C1145   1.398       .  A
C1145      H1148   1.067       .  S
C1149      C1171   1.495       .  S
C1149      C1150   1.415       .  A
C1149      C1154   1.412       .  A
C1150      C1151   1.411       .  A
C1150      H1155   1.084       .  S
C1151      C1162   1.501       .  S
C1151      C1152   1.411       .  A
C1152      C1153   1.411       .  A
C1152      H1156   1.084       .  S
C1153      C1178   1.496       .  S
C1153      C1154   1.411       .  A
C1154      H1157   1.084       .  S
C1158      C3234   1.484       .  S
C1158      C1159   1.399       .  A
C1158      C1163   1.412       .  A
C1159      C1160   1.385       .  A
C1159      H3012   1.069       .  S
C1160      C1161   1.418       .  A
C1161      C1162   1.417       .  A
C1161      H1165   1.083       .  S
C1162      C1163   1.416       .  A
C1163      H1166   1.084       .  S
H1164      C3007   1.069       .  S
C1167      C1212   1.487       .  S
C1167      C1168   1.403       .  A
C1167      C1172   1.412       .  A
C1168      C1169   1.388       .  A
C1168      H1173   1.066       .  S
C1169      C1170   1.417       .  A
C1170      C1171   1.414       .  A
C1170      H1174   1.083       .  S
C1171      C1172   1.412       .  A
C1172      H1175   1.084       .  S
C1176      C1177   1.410       .  A
C1176      C1181   1.398       .  A
C1177      C1178   1.413       .  A
C1177      H1182   1.084       .  S
C1178      C1179   1.416       .  A
C1179      C1180   1.418       .  A
C1179      H1183   1.083       .  S
C1180      C1181   1.383       .  A
O1185      C1193   1.223       .  A
O1185     Co1205   1.937       .  S
O1186      C1656   1.227       .  A
O1186     Co1206   1.941       .  S
O1187      C3043   1.225       .  A
O1187     Co1207   1.939       .  S
O1188      C1196   1.225       .  A
O1188     Co1208   1.937       .  S
O1189      C1195   1.273   1_455  A
O1189     Co1206   2.093       .  S
O1190      C3044   1.269       .  A
O1190     Co1205   2.081       .  S
O1191      C1194   1.275       .  A
O1191     Co1208   2.088       .  S
O1192      C1655   1.272   1_554  A
O1192     Co1207   2.096       .  S
C1193      O1654   1.272       .  A
C1194      O1648   1.227       .  A
C1194      C1815   1.486       .  S
C1195      O3035   1.225       .  A
C1195      C3154   1.490       .  S
C1196      O3038   1.269   1_455  A
O1197      C3058   1.227       .  A
O1197     Co1205   1.936       .  S
O1198      C1211   1.224       .  A
O1198     Co1206   1.939       .  S
O1199      C1212   1.222       .  A
O1199     Co1207   1.934       .  S
O1200      C1675   1.229       .  A
O1200     Co1208   1.943       .  S
O1201      C1213   1.273   1_554  A
O1201     Co1206   2.087       .  S
O1202      C1674   1.269       .  A
O1202     Co1205   2.094       .  S
O1203      C1210   1.272   1_455  A
O1203     Co1208   2.086       .  S
O1204      C3059   1.275       .  A
O1204     Co1207   2.095       .  S
Co1205     O3057   2.119       .  S
Co1206     O1671   2.113   1_554  S
Co1207     O3519   2.111   1_554  S
Co1208     O1209   2.111       .  S
O1209     Co3053   2.119   1_455  S
O1209     Co1668   2.113       .  S
O1209     Co3517   2.111   1_455  S
C1210      O3045   1.227       .  A
C1210      C3109   1.483       .  S
C1211      O3052   1.275   1_455  A
C1211      C1232   1.487       .  S
C1212      O1664   1.269   1_554  A
C1213      O1662   1.229       .  A
C1213      C1521   1.489       .  S
C1214      C1384   1.484       .  S
C1214      C1215   1.410       .  A
C1214      C1219   1.400       .  A
C1215      C1216   1.414       .  A
C1215      H1220   1.084       .  S
C1216      C1223   1.497       .  S
C1216      C1217   1.416       .  A
C1217      C1218   1.416       .  A
C1217      H1221   1.083       .  S
C1218      C1219   1.385       .  A
C1219      H1222   1.067       .  S
C1223      C1224   1.409       .  A
C1223      C1228   1.411       .  A
C1224      C1225   1.411       .  A
C1224      H1229   1.084       .  S
C1225      C1243   1.493       .  S
C1225      C1226   1.414       .  A
C1226      C1227   1.411       .  A
C1226      H1230   1.084       .  S
C1227      C1234   1.499       .  S
C1227      C1228   1.411       .  A
C1228      H1231   1.084       .  S
C1232      C1233   1.419       .  A
C1232      C1237   1.383       .  A
C1233      C1234   1.417       .  A
C1233      H1238   1.083       .  S
C1234      C1235   1.413       .  A
C1235      C1236   1.410       .  A
C1235      H1239   1.084       .  S
C1236      C1237   1.397       .  A
C1237      H1240   1.066       .  S
C1241      C1242   1.415       .  A
C1241      C1246   1.398       .  A
C1242      C1243   1.415       .  A
C1242      H1247   1.084       .  S
C1243      C1244   1.412       .  A
C1244      C1245   1.411       .  A
C1244      H1248   1.084       .  S
C1245      C1246   1.385       .  A
C1246      H1711   1.056       .  S
H1249      C1708   1.056       .  S
C1250      C1263   1.497       .  S
C1250      C1251   1.411       .  A
C1250      C1255   1.411       .  A
C1251      C1252   1.412       .  A
C1251      H1256   1.084       .  S
C1252      C1279   1.496       .  S
C1252      C1253   1.415       .  A
C1253      C1254   1.411       .  A
C1253      H1257   1.084       .  S
C1254      C1270   1.501       .  S
C1254      C1255   1.411       .  A
C1255      H1258   1.084       .  S
C1259      C1260   1.383       .  A
C1259      C1264   1.418       .  A
C1260      C1261   1.398       .  A
C1260      H1265   1.062       .  S
C1261      C3058   1.483       .  S
C1261      C1262   1.410       .  A
C1262      C1263   1.414       .  A
C1262      H1266   1.084       .  S
C1263      C1264   1.416       .  A
C1264      H1267   1.083       .  S
C1268      C1571   1.489       .  S
C1268      C1269   1.418       .  A
C1268      C1273   1.385       .  A
C1269      C1270   1.417       .  A
C1269      H1274   1.083       .  S
C1270      C1271   1.416       .  A
C1271      C1272   1.412       .  A
C1271      H1275   1.083       .  S
C1272      C1273   1.398       .  A
C1273      H1276   1.069       .  S
C1277      C1278   1.411       .  A
C1277      C1282   1.403       .  A
C1278      C1279   1.411       .  A
C1278      H1283   1.084       .  S
C1279      C1280   1.415       .  A
C1280      C1281   1.417       .  A
C1280      H1284   1.083       .  S
C1281      C1369   1.491       .  S
C1281      C1282   1.388       .  A
C1286      C1317   1.498       .  S
C1286      C1287   1.412       .  A
C1286      C1291   1.414       .  A
C1287      C1288   1.412       .  A
C1287      H1292   1.084       .  S
C1288      C1308   1.495       .  S
C1288      C1289   1.411       .  A
C1289      C1290   1.408       .  A
C1289      H1293   1.084       .  S
C1290      C1297   1.500       .  S
C1290      C1291   1.413       .  A
C1291      H1294   1.084       .  S
C1295      C1296   1.415       .  A
C1295      C1300   1.394       .  A
C1296      C1297   1.418       .  A
C1296      H1301   1.083       .  S
C1297      C1298   1.417       .  A
C1298      C1299   1.414       .  A
C1298      H1302   1.083       .  S
C1299      C1300   1.380       .  A
C1300      H1303   1.058       .  S
C1304      C1305   1.400       .  A
C1304      C1309   1.409       .  A
C1305      C1306   1.386       .  A
C1305      H3158   1.063       .  S
C1306      C3043   1.490       .  S
C1306      C1307   1.417       .  A
C1307      C1308   1.415       .  A
C1307      H1311   1.083       .  S
C1308      C1309   1.412       .  A
C1309      H1312   1.084       .  S
H1310      C3153   1.063       .  S
C1313      C1314   1.386       .  A
C1313      C1318   1.416       .  A
C1314      C1315   1.402       .  A
C1314      H1319   1.064       .  S
C1315      C1316   1.414       .  A
C1316      C1317   1.414       .  A
C1316      H1320   1.084       .  S
C1317      C1318   1.413       .  A
C1318      H1321   1.084       .  S
C1322      C1342   1.497       .  S
C1322      C1323   1.409       .  A
C1322      C1327   1.411       .  A
C1323      C1324   1.411       .  A
C1323      H1328   1.084       .  S
C1324      C1335   1.498       .  S
C1324      C1325   1.412       .  A
C1325      C1326   1.414       .  A
C1325      H1329   1.084       .  S
C1326      C1351   1.497       .  S
C1326      C1327   1.410       .  A
C1327      H1330   1.084       .  S
C1331      C1332   1.399       .  A
C1331      C1336   1.409       .  A
C1332      C1333   1.385       .  A
C1332      H1337   1.067   1_565  S
C1333      C1334   1.419       .  A
C1334      C1335   1.417       .  A
C1334      H1338   1.083       .  S
C1335      C1336   1.412       .  A
C1336      H1339   1.084       .  S
C1340      C1341   1.413       .  A
C1340      C1345   1.397       .  A
C1341      C1342   1.416       .  A
C1341      H1346   1.083       .  S
C1342      C1343   1.416       .  A
C1343      C1344   1.413       .  A
C1343      H1347   1.083       .  S
C1344      C1385   1.487       .  S
C1344      C1345   1.384       .  A
C1345      H1348   1.061       .  S
C1349      C1350   1.414       .  A
C1349      C1354   1.398       .  A
C1350      C1351   1.414       .  A
C1350      H1355   1.084       .  S
C1351      C1352   1.414       .  A
C1352      C1353   1.414       .  A
C1352      H1356   1.083       .  S
C1353      C1656   1.486       .  S
C1353      C1354   1.385       .  A
C1354      H1819   1.060       .  S
H1357      C1816   1.060       .  S
O1358      C1366   1.223       .  A
O1358     Co1378   1.945       .  S
O1359      C3215   1.222       .  A
O1359     Co1379   1.940       .  S
O1360     Co1380   1.939       .  S
O1361      C1369   1.225       .  A
O1361     Co1381   1.946       .  S
O1362      C1368   1.267       .  A
O1362     Co1379   2.094       .  S
O1363     Co1378   2.092       .  S
O1364      C1367   1.267       .  A
O1364     Co1381   2.093       .  S
O1365      C3214   1.270   1_455  A
O1365     Co1380   2.090       .  S
C1366      O3213   1.270       .  A
C1367      O3207   1.222       .  A
C1367      C2927   1.490       .  S
O1370     Co1378   1.937       .  S
O1371      C1384   1.228       .  A
O1371     Co1379   1.931       .  S
O1372      C1385   1.232       .  A
O1372     Co1380   1.938       .  S
O1373      C3234   1.226       .  A
O1373     Co1381   1.930       .  S
O1374      C1386   1.275   1_455  A
O1374     Co1379   2.095       .  S
O1375      C3233   1.277       .  A
O1375     Co1378   2.085       .  S
O1376      C1383   1.278       .  A
O1376     Co1381   2.086       .  S
O1377     Co1380   2.092       .  S
Co1378     O2306   2.113       .  S
Co1379     O1382   2.120       .  S
Co1381     O3230   2.120       .  S
O1382     Co2302   2.113   1_455  S
O1382     Co3229   2.120   1_455  S
C1385      O3223   1.277   1_455  A
C1386      O3221   1.226       .  A
C1386      C3006   1.484       .  S
O1387      C1395   1.223       .  A
O1388      C1396   1.227       .  A
O1388     Co1408   1.941   1_565  S
O1389      C1397   1.225       .  A
O1389     Co1409   1.939       .  S
O1390      C1398   1.225       .  A
O1391      C1397   1.274       .  A
O1391     Co1408   2.094   1_565  S
O1392      C1398   1.268       .  A
O1393      C1396   1.275       .  A
O1394      C1395   1.272       .  A
O1394     Co1409   2.095       .  S
C1395      C1757   1.488       .  S
C1396      C1597   1.486       .  S
C1397      C1476   1.490       .  S
C1398      C1793   1.480       .  S
O1399      C1412   1.227       .  A
O1399     Co1407   1.936       .  S
O1400      C1413   1.224       .  A
O1401      C1414   1.223       .  A
O1402      C1415   1.228       .  A
O1402     Co1410   1.943       .  S
O1403      C1415   1.274       .  A
O1404      C1414   1.269       .  A
O1404     Co1407   2.093       .  S
O1405      C1412   1.271       .  A
O1405     Co1410   2.085       .  S
O1406      C1413   1.276       .  A
Co1408     O1411   2.113       .  S
Co1409     O1411   2.110   1_565  S
C1412      C1638   1.482       .  S
C1413      C1532   1.488       .  S
C1414      C1739   1.487       .  S
C1415      C1680   1.488       .  S
O1416      C1424   1.223       .  A
O1416     Co3284   1.934       .  S
O1417      C1425   1.227       .  A
O1417     Co1437   1.942       .  S
O1418      C1426   1.227       .  A
O1418     Co1438   1.937       .  S
O1419      C1427   1.223       .  A
O1419     Co3287   1.939       .  S
O1420      C1426   1.269       .  A
O1420     Co1437   2.082       .  S
O1421      C1427   1.274       .  A
O1421     Co3284   2.095       .  S
O1422      C1425   1.274       .  A
O1422     Co3287   2.091       .  S
O1423      C1424   1.271       .  A
O1423     Co1438   2.095       .  S
C1424      C1494   1.487       .  S
C1425      C1622   1.489       .  S
C1426      C1766   1.483       .  S
C1427      C1721   1.488       .  S
O1428      C1441   1.226       .  A
O1428     Co1436   1.940       .  S
O1429      C1442   1.225       .  A
O1429     Co3285   1.936   1_455  S
O1430      C1443   1.224       .  A
O1430     Co3286   1.936       .  S
O1431      C1444   1.226       .  A
O1431     Co1439   1.940       .  S
O1432      C1444   1.273       .  A
O1432     Co3285   2.085   1_455  S
O1433      C1443   1.271       .  A
O1433     Co1436   2.092       .  S
O1434      C1441   1.275       .  A
O1434     Co1439   2.095       .  S
O1435      C1442   1.271       .  A
O1435     Co3286   2.083       .  S
Co1436     O3264   1.934   1_455  S
Co1436     O3269   2.095   1_455  S
Co1436     O1440   2.117       .  S
Co1437     O3277   1.936       .  S
Co1437     O3280   2.085       .  S
Co1437     O3288   2.116       .  S
Co1438     O3278   1.936       .  S
Co1438     O3283   2.083       .  S
Co1438     O3288   2.113       .  S
Co1439     O3267   1.939   1_455  S
Co1439     O3270   2.091   1_455  S
Co1439     O1440   2.106       .  S
O1440     Co3285   2.116   1_455  S
O1440     Co3286   2.113       .  S
C1441      C1602   1.490       .  S
C1442      C1698   1.479       .  S
C1443      C1802   1.488       .  S
C1444      C1537   1.484       .  S
O1445      C1453   1.228       .  A
O1446      C1454   1.229       .  A
O1446     Co1466   1.937   1_556  S
O1447      C1455   1.232       .  A
O1447     Co1467   1.938   1_556  S
O1448      C1456   1.226       .  A
O1449      C1455   1.277       .  A
O1449     Co1466   2.084   1_556  S
O1450      C1456   1.275       .  A
O1451      C1454   1.278       .  A
O1452      C1453   1.275       .  A
O1452     Co1467   2.094   1_556  S
C1453      C1519   1.486       .  S
C1454      C1503   1.486       .  S
C1455      C1586   1.486       .  S
C1456      C1734   1.484       .  S
O1457      C1470   1.222       .  A
O1457     Co1465   1.940       .  S
O1458      C1471   1.223       .  A
O1459      C1472   1.220       .  A
O1460      C1473   1.225       .  A
O1460     Co1468   1.946       .  S
O1461      C1473   1.270       .  A
O1462      C1472   1.267       .  A
O1462     Co1465   2.095       .  S
O1463      C1470   1.267       .  A
O1463     Co1468   2.094       .  S
O1464      C1471   1.270       .  A
Co1466     O1469   2.115   1_554  S
Co1467     O1469   2.118   1_554  S
C1470      C1703   1.490       .  S
C1471      C1775   1.487       .  S
C1472      C1811   1.488       .  S
C1473      C1631   1.489       .  S
C1474      C1573   1.481       .  S
C1474      C1475   1.400       .  A
C1474      C1479   1.408       .  A
C1475      C1476   1.385       .  A
C1475      H1480   1.064       .  S
C1476      C1477   1.417       .  A
C1477      C1478   1.415       .  A
C1477      H1481   1.083       .  S
C1478      C1485   1.495       .  S
C1478      C1479   1.412       .  A
C1479      H1482   1.084       .  S
C1483      C1505   1.501       .  S
C1483      C1484   1.408       .  A
C1483      C1488   1.413       .  A
C1484      C1485   1.411       .  A
C1484      H1489   1.084       .  S
C1485      C1486   1.412       .  A
C1486      C1487   1.412       .  A
C1486      H1490   1.084       .  S
C1487      C1496   1.498       .  S
C1487      C1488   1.414       .  A
C1488      H1491   1.084       .  S
C1492      C1828   1.487       .  S
C1492      C1493   1.386       .  A
C1492      C1497   1.416       .  A
C1493      C1494   1.401       .  A
C1493      H3346   1.063       .  S
C1494      C1495   1.414       .  A
C1495      C1496   1.414       .  A
C1495      H1499   1.084       .  S
C1496      C1497   1.413       .  A
C1497      H1500   1.084       .  S
H1498      C3341   1.063   1_455  S
C1501      C1655   1.488       .  S
C1501      C1502   1.394       .  A
C1501      C1506   1.415       .  A
C1502      C1503   1.380       .  A
C1502      H1507   1.058       .  S
C1503      C1504   1.415       .  A
C1504      C1505   1.418       .  A
C1504      H1508   1.083       .  S
C1505      C1506   1.418       .  A
C1506      H1509   1.083       .  S
C1510      C1530   1.499       .  S
C1510      C1511   1.411       .  A
C1510      C1515   1.411       .  A
C1511      C1512   1.414       .  A
C1511      H1516   1.084       .  S
C1512      C1539   1.493       .  S
C1512      C1513   1.411       .  A
C1513      C1514   1.409       .  A
C1513      H1517   1.084       .  S
C1514      C1523   1.497       .  S
C1514      C1515   1.411       .  A
C1515      H1518   1.084       .  S
C1519      C1520   1.400       .  A
C1519      C1524   1.411       .  A
C1520      C1521   1.386       .  A
C1520      H1525   1.066   1_556  S
C1521      C1522   1.416       .  A
C1522      C1523   1.416       .  A
C1522      H1526   1.083       .  S
C1523      C1524   1.415       .  A
C1524      H1527   1.084       .  S
C1528      C1554   1.479       .  S
C1528      C1529   1.410       .  A
C1528      C1533   1.397       .  A
C1529      C1530   1.413       .  A
C1529      H1534   1.084       .  S
C1530      C1531   1.417       .  A
C1531      C1532   1.420       .  A
C1531      H1535   1.083       .  S
C1532      C1533   1.383       .  A
C1533      H1536   1.066       .  S
C1537      C1538   1.411       .  A
C1537      C1542   1.385       .  A
C1538      C1539   1.412       .  A
C1538      H1543   1.084       .  S
C1539      C1540   1.414       .  A
C1540      C1541   1.414       .  A
C1540      H1544   1.084       .  S
C1541      C3677   1.490       .  S
C1541      C1542   1.398       .  A
C1542      H1545   1.056       .  S
O1546      C1554   1.225       .  A
O1546     Co1566   1.936       .  S
O1547     Co1567   1.940       .  S
O1548     Co1568   1.937       .  S
O1549      C1557   1.226       .  A
O1549     Co1569   1.940       .  S
O1550      C1556   1.271       .  A
O1550     Co1567   2.091       .  S
O1551     Co1566   2.085       .  S
O1552      C1555   1.275       .  A
O1552     Co1569   2.095       .  S
O1553     Co1568   2.082       .  S
C1557      C1707   1.484       .  S
O1558     Co1566   1.942       .  S
O1559      C1572   1.223       .  A
O1559     Co1567   1.934       .  S
O1560      C1573   1.228       .  A
O1560     Co1568   1.937       .  S
O1561     Co1569   1.940       .  S
O1562      C1574   1.274   1_565  A
O1562     Co1567   2.094       .  S
O1563     Co1566   2.080       .  S
O1564      C1571   1.274       .  A
O1564     Co1569   2.091       .  S
O1565     Co1568   2.096       .  S
Co1567     O1570   2.116   1_565  S
C1572      C1777   1.487       .  S
C1575      C1588   1.496       .  S
C1575      C1576   1.409       .  A
C1575      C1580   1.411       .  A
C1576      C1577   1.411       .  A
C1576      H1581   1.084       .  S
C1577      C1604   1.498       .  S
C1577      C1578   1.413       .  A
C1578      C1579   1.415       .  A
C1578      H1582   1.084       .  S
C1579      C1595   1.497       .  S
C1579      C1580   1.410       .  A
C1580      H1583   1.084       .  S
C1584      C1585   1.397       .  A
C1584      C1589   1.413       .  A
C1585      C1586   1.384       .  A
C1585      H1590   1.061       .  S
C1586      C1587   1.413       .  A
C1587      C1588   1.416       .  A
C1587      H1591   1.083       .  S
C1588      C1589   1.416       .  A
C1589      H1592   1.083       .  S
C1593      C1594   1.414       .  A
C1593      C1598   1.398       .  A
C1594      C1595   1.414       .  A
C1594      H1599   1.084       .  S
C1595      C1596   1.415       .  A
C1596      C1597   1.415       .  A
C1596      H1600   1.083       .  S
C1597      C1598   1.385       .  A
C1598      H1601   1.060       .  S
C1602      C1603   1.419       .  A
C1602      C1607   1.386       .  A
C1603      C1604   1.417       .  A
C1603      H1608   1.083       .  S
C1604      C1605   1.413       .  A
C1605      C1606   1.410       .  A
C1605      H1609   1.084       .  S
C1606      C1658   1.480       .  S
C1606      C1607   1.398       .  A
C1607      H1610   1.067       .  S
C1611      C1633   1.495       .  S
C1611      C1612   1.415       .  A
C1611      C1616   1.412       .  A
C1612      C1613   1.411       .  A
C1612      H1617   1.084       .  S
C1613      C1624   1.501       .  S
C1613      C1614   1.411       .  A
C1614      C1615   1.411       .  A
C1614      H1618   1.084       .  S
C1615      C1640   1.496       .  S
C1615      C1616   1.411       .  A
C1616      H1619   1.084       .  S
C1620      C3696   1.484       .  S
C1620      C1621   1.399       .  A
C1620      C1625   1.412       .  A
C1621      C1622   1.385       .  A
C1621      H3474   1.069       .  S
C1622      C1623   1.418       .  A
C1623      C1624   1.417       .  A
C1623      H1627   1.083       .  S
C1624      C1625   1.416       .  A
C1625      H1628   1.084       .  S
H1626      C3469   1.069       .  S
C1629      C1674   1.487       .  S
C1629      C1630   1.403       .  A
C1629      C1634   1.412       .  A
C1630      C1631   1.388       .  A
C1630      H1635   1.066       .  S
C1631      C1632   1.417       .  A
C1632      C1633   1.414       .  A
C1632      H1636   1.083       .  S
C1633      C1634   1.412       .  A
C1634      H1637   1.084       .  S
C1638      C1639   1.410       .  A
C1638      C1643   1.398       .  A
C1639      C1640   1.413       .  A
C1639      H1644   1.084       .  S
C1640      C1641   1.416       .  A
C1641      C1642   1.418       .  A
C1641      H1645   1.083       .  S
C1642      C1643   1.383       .  A
O1647      C1655   1.223       .  A
O1647     Co1667   1.937       .  S
O1648     Co1668   1.941       .  S
O1649      C3505   1.225       .  A
O1649     Co1669   1.939       .  S
O1650      C1658   1.225       .  A
O1650     Co1670   1.937       .  S
O1651      C1657   1.273   1_455  A
O1651     Co1668   2.093       .  S
O1652      C3506   1.269       .  A
O1652     Co1667   2.081       .  S
O1653      C1656   1.275   1_556  A
O1653     Co1670   2.088       .  S
O1654     Co1669   2.096       .  S
C1657      O3497   1.225       .  A
C1657      C3616   1.490       .  S
C1658      O3500   1.269   1_455  A
O1659      C3520   1.227       .  A
O1659     Co1667   1.936       .  S
O1660      C1673   1.224       .  A
O1660     Co1668   1.939       .  S
O1661      C1674   1.222       .  A
O1661     Co1669   1.934       .  S
O1662     Co1670   1.943       .  S
O1663      C1675   1.273       .  A
O1663     Co1668   2.087       .  S
O1664     Co1667   2.094       .  S
O1665      C1672   1.272   1_455  A
O1665     Co1670   2.086       .  S
O1666      C3521   1.275       .  A
O1666     Co1669   2.095       .  S
Co1667     O3519   2.119       .  S
Co1669     O3057   2.111       .  S
Co1670     O1671   2.111       .  S
O1671     Co3515   2.119   1_455  S
O1671     Co3055   2.111   1_456  S
C1672      O3507   1.227       .  A
C1672      C3571   1.483       .  S
C1673      O3514   1.275   1_455  A
C1673      C1694   1.487       .  S
C1676      C1846   1.484       .  S
C1676      C1677   1.410       .  A
C1676      C1681   1.400       .  A
C1677      C1678   1.414       .  A
C1677      H1682   1.084       .  S
C1678      C1685   1.497       .  S
C1678      C1679   1.416       .  A
C1679      C1680   1.416       .  A
C1679      H1683   1.083       .  S
C1680      C1681   1.385       .  A
C1681      H1684   1.067       .  S
C1685      C1686   1.409       .  A
C1685      C1690   1.411       .  A
C1686      C1687   1.411       .  A
C1686      H1691   1.084       .  S
C1687      C1705   1.493       .  S
C1687      C1688   1.414       .  A
C1688      C1689   1.411       .  A
C1688      H1692   1.084       .  S
C1689      C1696   1.499       .  S
C1689      C1690   1.411       .  A
C1690      H1693   1.084       .  S
C1694      C1695   1.419       .  A
C1694      C1699   1.383       .  A
C1695      C1696   1.417       .  A
C1695      H1700   1.083       .  S
C1696      C1697   1.413       .  A
C1697      C1698   1.410       .  A
C1697      H1701   1.084       .  S
C1698      C1699   1.397       .  A
C1699      H1702   1.066       .  S
C1703      C1704   1.415       .  A
C1703      C1708   1.398       .  A
C1704      C1705   1.415       .  A
C1704      H1709   1.084       .  S
C1705      C1706   1.412       .  A
C1706      C1707   1.411       .  A
C1706      H1710   1.084       .  S
C1707      C1708   1.385       .  A
C1712      C1725   1.497       .  S
C1712      C1713   1.411       .  A
C1712      C1717   1.411       .  A
C1713      C1714   1.412       .  A
C1713      H1718   1.084       .  S
C1714      C1741   1.496       .  S
C1714      C1715   1.415       .  A
C1715      C1716   1.411       .  A
C1715      H1719   1.084       .  S
C1716      C1732   1.501       .  S
C1716      C1717   1.411       .  A
C1717      H1720   1.084       .  S
C1721      C1722   1.383       .  A
C1721      C1726   1.418       .  A
C1722      C1723   1.398       .  A
C1722      H1727   1.062       .  S
C1723      C3520   1.483       .  S
C1723      C1724   1.410       .  A
C1724      C1725   1.414       .  A
C1724      H1728   1.084       .  S
C1725      C1726   1.416       .  A
C1726      H1729   1.083       .  S
C1730      C1731   1.418       .  A
C1730      C1735   1.385       .  A
C1731      C1732   1.417       .  A
C1731      H1736   1.083       .  S
C1732      C1733   1.416       .  A
C1733      C1734   1.412       .  A
C1733      H1737   1.083       .  S
C1734      C1735   1.398       .  A
C1735      H1738   1.069   1_556  S
C1739      C1740   1.411       .  A
C1739      C1744   1.403       .  A
C1740      C1741   1.411       .  A
C1740      H1745   1.084       .  S
C1741      C1742   1.415       .  A
C1742      C1743   1.417       .  A
C1742      H1746   1.083       .  S
C1743      C1831   1.491       .  S
C1743      C1744   1.388       .  A
C1748      C1779   1.498       .  S
C1748      C1749   1.412       .  A
C1748      C1753   1.414       .  A
C1749      C1750   1.412       .  A
C1749      H1754   1.084       .  S
C1750      C1770   1.495       .  S
C1750      C1751   1.411       .  A
C1751      C1752   1.408       .  A
C1751      H1755   1.084       .  S
C1752      C1759   1.500       .  S
C1752      C1753   1.413       .  A
C1753      H1756   1.084       .  S
C1757      C1758   1.415       .  A
C1757      C1762   1.394       .  A
C1758      C1759   1.418       .  A
C1758      H1763   1.083       .  S
C1759      C1760   1.417       .  A
C1760      C1761   1.414       .  A
C1760      H1764   1.083       .  S
C1761      C1762   1.380       .  A
C1762      H1765   1.058       .  S
C1766      C1767   1.400       .  A
C1766      C1771   1.409       .  A
C1767      C1768   1.386       .  A
C1767      H3620   1.063       .  S
C1768      C3505   1.490       .  S
C1768      C1769   1.417       .  A
C1769      C1770   1.415       .  A
C1769      H1773   1.083       .  S
C1770      C1771   1.412       .  A
C1771      H1774   1.084       .  S
H1772      C3615   1.063       .  S
C1775      C1776   1.386       .  A
C1775      C1780   1.416       .  A
C1776      C1777   1.402       .  A
C1776      H1781   1.064       .  S
C1777      C1778   1.414       .  A
C1778      C1779   1.414       .  A
C1778      H1782   1.084       .  S
C1779      C1780   1.413       .  A
C1780      H1783   1.084       .  S
C1784      C1804   1.497       .  S
C1784      C1785   1.409       .  A
C1784      C1789   1.411       .  A
C1785      C1786   1.411       .  A
C1785      H1790   1.084       .  S
C1786      C1797   1.498       .  S
C1786      C1787   1.412       .  A
C1787      C1788   1.414       .  A
C1787      H1791   1.084       .  S
C1788      C1813   1.497       .  S
C1788      C1789   1.410       .  A
C1789      H1792   1.084       .  S
C1793      C1794   1.399       .  A
C1793      C1798   1.409       .  A
C1794      C1795   1.385       .  A
C1794      H1799   1.067   1_565  S
C1795      C1796   1.419       .  A
C1796      C1797   1.417       .  A
C1796      H1800   1.083       .  S
C1797      C1798   1.412       .  A
C1798      H1801   1.084       .  S
C1802      C1803   1.413       .  A
C1802      C1807   1.397       .  A
C1803      C1804   1.416       .  A
C1803      H1808   1.083       .  S
C1804      C1805   1.416       .  A
C1805      C1806   1.413       .  A
C1805      H1809   1.083       .  S
C1806      C1847   1.487       .  S
C1806      C1807   1.384       .  A
C1807      H1810   1.061       .  S
C1811      C1812   1.414       .  A
C1811      C1816   1.398       .  A
C1812      C1813   1.414       .  A
C1812      H1817   1.084       .  S
C1813      C1814   1.414       .  A
C1814      C1815   1.414       .  A
C1814      H1818   1.083       .  S
C1815      C1816   1.385       .  A
O1820      C1828   1.223       .  A
O1820     Co1840   1.945       .  S
O1821      C3677   1.222       .  A
O1821     Co1841   1.940       .  S
O1822     Co1842   1.939       .  S
O1823      C1831   1.225       .  A
O1823     Co1843   1.946       .  S
O1824      C1830   1.267       .  A
O1824     Co1841   2.094       .  S
O1825     Co1840   2.092       .  S
O1826      C1829   1.267       .  A
O1826     Co1843   2.093       .  S
O1827      C3676   1.270   1_455  A
O1827     Co1842   2.090       .  S
C1828      O3675   1.270       .  A
C1829      O3669   1.222       .  A
C1829      C3389   1.490       .  S
O1832     Co1840   1.937       .  S
O1833      C1846   1.228       .  A
O1833     Co1841   1.931       .  S
O1834      C1847   1.232       .  A
O1834     Co1842   1.938       .  S
O1835      C3696   1.226       .  A
O1835     Co1843   1.930       .  S
O1836      C1848   1.275   1_455  A
O1836     Co1841   2.095       .  S
O1837      C3695   1.277       .  A
O1837     Co1840   2.085       .  S
O1838      C1845   1.278       .  A
O1838     Co1843   2.086       .  S
O1839     Co1842   2.092       .  S
Co1840     O2768   2.113       .  S
Co1841     O1844   2.120       .  S
Co1843     O3692   2.120       .  S
O1844     Co2764   2.113   1_455  S
O1844     Co3691   2.120   1_455  S
C1847      O3685   1.277   1_455  A
C1848      O3683   1.226       .  A
C1848      C3468   1.484       .  S
O1849      C1857   1.223       .  A
O1849     Co2793   1.937       .  S
O1850      C1858   1.227       .  A
O1850     Co1870   1.941       .  S
O1851      C1859   1.225       .  A
O1851     Co1871   1.939       .  S
O1852      C1860   1.225       .  A
O1852     Co2796   1.937       .  S
O1853      C1859   1.274       .  A
O1853     Co1870   2.094       .  S
O1854      C1860   1.268       .  A
O1854     Co2793   2.080       .  S
O1855      C1858   1.275       .  A
O1855     Co2796   2.088       .  S
O1856      C1857   1.272       .  A
O1856     Co1871   2.095       .  S
C1857      C2219   1.488       .  S
C1858      C2059   1.486       .  S
C1859      C1938   1.490       .  S
C1860      C2255   1.480       .  S
O1861      C1874   1.227       .  A
O1861     Co1869   1.936   1_545  S
O1862      C1875   1.224       .  A
O1862     Co2794   1.939       .  S
O1863      C1876   1.223       .  A
O1863     Co2795   1.934   1_545  S
O1864      C1877   1.228       .  A
O1864     Co1872   1.943       .  S
O1865      C1877   1.274       .  A
O1865     Co2794   2.088       .  S
O1866      C1876   1.269       .  A
O1866     Co1869   2.093   1_545  S
O1867      C1874   1.271       .  A
O1867     Co1872   2.085       .  S
O1868      C1875   1.276       .  A
O1868     Co2795   2.097   1_545  S
Co1869     O2773   1.937       .  S
Co1869     O2778   2.080       .  S
Co1869     O2797   2.118   1_565  S
Co1870     O2786   1.939       .  S
Co1870     O2789   2.088       .  S
Co1870     O1873   2.113       .  S
Co1871     O2787   1.934       .  S
Co1871     O2792   2.097       .  S
Co1871     O1873   2.110       .  S
Co1872     O2776   1.937   1_545  S
Co1872     O2779   2.088   1_545  S
Co1872     O2797   2.111       .  S
O1873     Co2793   2.118       .  S
O1873     Co2796   2.111       .  S
C1874      C2100   1.482       .  S
C1875      C1994   1.488       .  S
C1876      C2201   1.487       .  S
C1877      C2142   1.488       .  S
O1878      C1886   1.223       .  A
O1879      C1887   1.228       .  A
O1879     Co1899   1.942       .  S
O1880      C1888   1.227       .  A
O1880     Co1900   1.937   1_655  S
O1881      C1889   1.223       .  A
O1882      C1888   1.269       .  A
O1882     Co1899   2.082       .  S
O1883      C1889   1.274       .  A
O1884      C1887   1.274       .  A
O1885      C1886   1.271       .  A
O1885     Co1900   2.095   1_655  S
C1886      C1956   1.487       .  S
C1887      C2084   1.489       .  S
C1888      C2228   1.483       .  S
C1889      C2183   1.488       .  S
O1890      C1903   1.226       .  A
O1890     Co1898   1.940       .  S
O1891      C1904   1.225       .  A
O1892      C1905   1.224       .  A
O1893      C1906   1.226       .  A
O1893     Co1901   1.940       .  S
O1894      C1906   1.273       .  A
O1895      C1905   1.271       .  A
O1895     Co1898   2.092       .  S
O1896      C1903   1.275       .  A
O1896     Co1901   2.095       .  S
O1897      C1904   1.271       .  A
Co1898     O1902   2.117       .  S
Co1901     O1902   2.106       .  S
C1903      C2064   1.490       .  S
C1904      C2160   1.479       .  S
C1905      C2264   1.488       .  S
C1906      C1999   1.484       .  S
O1907      C1915   1.228       .  A
O1907     Co2389   1.931       .  S
O1908      C1916   1.229       .  A
O1908     Co1928   1.937       .  S
O1909      C1917   1.232       .  A
O1909     Co1929   1.938       .  S
O1910      C1918   1.226       .  A
O1910     Co2392   1.930       .  S
O1911      C1917   1.277       .  A
O1911     Co1928   2.084       .  S
O1912      C1918   1.275       .  A
O1912     Co2389   2.095       .  S
O1913      C1916   1.278       .  A
O1913     Co2392   2.087       .  S
O1914      C1915   1.275       .  A
O1914     Co1929   2.094       .  S
C1915      C1981   1.486       .  S
C1916      C1965   1.486       .  S
C1917      C2048   1.486       .  S
C1918      C2196   1.484       .  S
O1919      C1932   1.222       .  A
O1919     Co1927   1.940       .  S
O1920      C1933   1.223       .  A
O1920     Co2390   1.945       .  S
O1921      C1934   1.220       .  A
O1921     Co2391   1.939       .  S
O1922      C1935   1.225       .  A
O1922     Co1930   1.946       .  S
O1923      C1935   1.270       .  A
O1923     Co2390   2.090       .  S
O1924      C1934   1.267       .  A
O1924     Co1927   2.095       .  S
O1925      C1932   1.267       .  A
O1925     Co1930   2.094       .  S
O1926      C1933   1.270       .  A
O1926     Co2391   2.092       .  S
Co1927     O2369   1.931   1_554  S
Co1927     O2374   2.095   1_554  S
Co1927     O2393   2.122   1_554  S
Co1928     O2382   1.945       .  S
Co1928     O2385   2.090       .  S
Co1928     O1931   2.115       .  S
Co1929     O2383   1.939       .  S
Co1929     O2388   2.092       .  S
Co1929     O1931   2.118       .  S
Co1930     O2372   1.930   1_554  S
Co1930     O2375   2.087   1_554  S
Co1930     O2393   2.119   1_554  S
O1931     Co2389   2.122       .  S
O1931     Co2392   2.119       .  S
C1932      C2165   1.490       .  S
C1933      C2237   1.487       .  S
C1934      C2273   1.488       .  S
C1935      C2093   1.489       .  S
C1936      C2035   1.481       .  S
C1936      C1937   1.400       .  A
C1936      C1941   1.408       .  A
C1937      C1938   1.385       .  A
C1937      H1942   1.064       .  S
C1938      C1939   1.417       .  A
C1939      C1940   1.415       .  A
C1939      H1943   1.083       .  S
C1940      C1947   1.495       .  S
C1940      C1941   1.412       .  A
C1941      H1944   1.084       .  S
C1945      C1967   1.501       .  S
C1945      C1946   1.408       .  A
C1945      C1950   1.413       .  A
C1946      C1947   1.411       .  A
C1946      H1951   1.084       .  S
C1947      C1948   1.412       .  A
C1948      C1949   1.412       .  A
C1948      H1952   1.084       .  S
C1949      C1958   1.498       .  S
C1949      C1950   1.414       .  A
C1950      H1953   1.084       .  S
C1954      C2290   1.487       .  S
C1954      C1955   1.386       .  A
C1954      C1959   1.416       .  A
C1955      C1956   1.401       .  A
C1956      C1957   1.414       .  A
C1957      C1958   1.414       .  A
C1957      H1961   1.084       .  S
C1958      C1959   1.413       .  A
C1959      H1962   1.084       .  S
C1963      C2117   1.488       .  S
C1963      C1964   1.394       .  A
C1963      C1968   1.415       .  A
C1964      C1965   1.380       .  A
C1964      H1969   1.058       .  S
C1965      C1966   1.415       .  A
C1966      C1967   1.418       .  A
C1966      H1970   1.083       .  S
C1967      C1968   1.418       .  A
C1968      H1971   1.083       .  S
C1972      C1992   1.499       .  S
C1972      C1973   1.411       .  A
C1972      C1977   1.411       .  A
C1973      C1974   1.414       .  A
C1973      H1978   1.084       .  S
C1974      C2001   1.493       .  S
C1974      C1975   1.411       .  A
C1975      C1976   1.409       .  A
C1975      H1979   1.084       .  S
C1976      C1985   1.497       .  S
C1976      C1977   1.411       .  A
C1977      H1980   1.084       .  S
C1981      C1982   1.400       .  A
C1981      C1986   1.411       .  A
C1982      C1983   1.386       .  A
C1982      H1987   1.066       .  S
C1983      C2599   1.489       .  S
C1983      C1984   1.416       .  A
C1984      C1985   1.416       .  A
C1984      H1988   1.083       .  S
C1985      C1986   1.415       .  A
C1986      H1989   1.084       .  S
C1990      C2016   1.479       .  S
C1990      C1991   1.410       .  A
C1990      C1995   1.397       .  A
C1991      C1992   1.413       .  A
C1991      H1996   1.084       .  S
C1992      C1993   1.417       .  A
C1993      C1994   1.420       .  A
C1993      H1997   1.083       .  S
C1994      C1995   1.383       .  A
C1995      H1998   1.066       .  S
C1999      C2000   1.411       .  A
C1999      C2004   1.385       .  A
C2000      C2001   1.412       .  A
C2000      H2005   1.084       .  S
C2001      C2002   1.414       .  A
C2002      C2003   1.414       .  A
C2002      H2006   1.084       .  S
C2003      C2004   1.398       .  A
C2004      H2007   1.056       .  S
O2008      C2016   1.225       .  A
O2008     Co2028   1.936       .  S
O2009      C2941   1.225       .  A
O2009     Co2029   1.940       .  S
O2010      C2480   1.224       .  A
O2010     Co2030   1.937       .  S
O2011      C2019   1.226       .  A
O2011     Co2031   1.940       .  S
O2012      C2018   1.271   1_554  A
O2012     Co2029   2.091       .  S
O2013      C2481   1.273       .  A
O2013     Co2028   2.085       .  S
O2014      C2017   1.275   1_545  A
O2014     Co2031   2.095       .  S
O2015      C2940   1.270       .  A
O2015     Co2030   2.082       .  S
C2016      O2939   1.270   1_545  A
C2017      O2933   1.225       .  A
C2017      C3181   1.490       .  S
C2018      O2472   1.224       .  A
C2018      C2508   1.487       .  S
C2019      O2475   1.273   1_554  A
C2019      C2169   1.484       .  S
O2020      C2495   1.228       .  A
O2020     Co2028   1.942       .  S
O2021      C2034   1.223       .  A
O2021     Co2029   1.934       .  S
O2022      C2035   1.228       .  A
O2022     Co2030   1.937       .  S
O2023      C2960   1.223       .  A
O2023     Co2031   1.940       .  S
O2024      C2036   1.274       .  A
O2024     Co2029   2.094       .  S
O2025      C2959   1.269   1_545  A
O2025     Co2028   2.080       .  S
O2026      C2033   1.274   1_554  A
O2026     Co2031   2.091       .  S
O2027      C2496   1.271       .  A
O2027     Co2030   2.096       .  S
Co2028     O3418   2.116       .  S
Co2029     O2032   2.116   1_554  S
Co2030     O2494   2.114       .  S
Co2031     O2956   2.106   1_554  S
O2032     Co3414   2.116       .  S
O2032     Co2492   2.114       .  S
O2032     Co2955   2.106   1_556  S
C2033      O2482   1.228       .  A
C2033      C2654   1.489       .  S
C2034      O2489   1.271   1_554  A
C2034      C2239   1.487       .  S
C2035      O2949   1.269       .  A
C2036      O2947   1.223       .  A
C2036      C3028   1.487       .  S
C2037      C2050   1.496       .  S
C2037      C2038   1.409       .  A
C2037      C2042   1.411       .  A
C2038      C2039   1.411       .  A
C2038      H2043   1.084       .  S
C2039      C2066   1.498       .  S
C2039      C2040   1.413       .  A
C2040      C2041   1.415       .  A
C2040      H2044   1.084       .  S
C2041      C2057   1.497       .  S
C2041      C2042   1.410       .  A
C2042      H2045   1.084       .  S
C2046      C2480   1.487       .  S
C2046      C2047   1.397       .  A
C2046      C2051   1.413       .  A
C2047      C2048   1.384       .  A
C2047      H2052   1.061       .  S
C2048      C2049   1.413       .  A
C2049      C2050   1.416       .  A
C2049      H2053   1.083       .  S
C2050      C2051   1.416       .  A
C2051      H2054   1.083       .  S
C2055      C3216   1.487       .  S
C2055      C2056   1.414       .  A
C2055      C2060   1.398       .  A
C2056      C2057   1.414       .  A
C2056      H2061   1.084       .  S
C2057      C2058   1.415       .  A
C2058      C2059   1.415       .  A
C2058      H2062   1.083       .  S
C2059      C2060   1.385       .  A
C2060      H2063   1.060       .  S
C2064      C2065   1.419       .  A
C2064      C2069   1.386       .  A
C2065      C2066   1.417       .  A
C2065      H2070   1.083       .  S
C2066      C2067   1.413       .  A
C2067      C2068   1.410       .  A
C2067      H2071   1.084       .  S
C2068      C2120   1.480       .  S
C2068      C2069   1.398       .  A
C2069      H2072   1.067       .  S
C2073      C2095   1.495       .  S
C2073      C2074   1.415       .  A
C2073      C2078   1.412       .  A
C2074      C2075   1.411       .  A
C2074      H2079   1.084       .  S
C2075      C2086   1.501       .  S
C2075      C2076   1.411       .  A
C2076      C2077   1.411       .  A
C2076      H2080   1.084       .  S
C2077      C2102   1.496       .  S
C2077      C2078   1.411       .  A
C2078      H2081   1.084       .  S
C2082      C2083   1.399       .  A
C2082      C2087   1.412       .  A
C2083      C2084   1.385       .  A
C2084      C2085   1.418       .  A
C2085      C2086   1.417       .  A
C2085      H2089   1.083       .  S
C2086      C2087   1.416       .  A
C2087      H2090   1.084       .  S
C2091      C2136   1.487       .  S
C2091      C2092   1.403       .  A
C2091      C2096   1.412       .  A
C2092      C2093   1.388       .  A
C2092      H2097   1.066       .  S
C2093      C2094   1.417       .  A
C2094      C2095   1.414       .  A
C2094      H2098   1.083       .  S
C2095      C2096   1.412       .  A
C2096      H2099   1.084       .  S
C2100      C2101   1.410       .  A
C2100      C2105   1.398       .  A
C2101      C2102   1.413       .  A
C2101      H2106   1.084       .  S
C2102      C2103   1.416       .  A
C2103      C2104   1.418       .  A
C2103      H2107   1.083       .  S
C2104      C2960   1.487       .  S
C2104      C2105   1.383       .  A
C2105      H3032   1.062       .  S
H2108      C3029   1.062       .  S
O2109      C2117   1.223       .  A
O2109     Co2129   1.937       .  S
O2110      C2580   1.227       .  A
O2110     Co2130   1.941       .  S
O2111     Co2131   1.939       .  S
O2112      C2120   1.225       .  A
O2112     Co2132   1.937       .  S
O2113      C2119   1.273       .  A
O2113     Co2130   2.093       .  S
O2114     Co2129   2.081       .  S
O2115      C2118   1.275       .  A
O2115     Co2132   2.088       .  S
O2116      C2579   1.272   1_554  A
O2116     Co2131   2.096       .  S
C2117      O2578   1.272       .  A
C2118      O2572   1.227       .  A
C2118      C2739   1.486       .  S
O2121     Co2129   1.936       .  S
O2122      C2135   1.224       .  A
O2122     Co2130   1.939       .  S
O2123      C2136   1.222       .  A
O2123     Co2131   1.934       .  S
O2124      C2599   1.229       .  A
O2124     Co2132   1.943       .  S
O2125      C2137   1.273   1_554  A
O2125     Co2130   2.087       .  S
O2126      C2598   1.269       .  A
O2126     Co2129   2.094       .  S
O2127      C2134   1.272       .  A
O2127     Co2132   2.086       .  S
O2128     Co2131   2.095       .  S
Co2130     O2595   2.113   1_554  S
Co2132     O2133   2.111       .  S
O2133     Co2592   2.113       .  S
C2135      C2156   1.487       .  S
C2136      O2588   1.269   1_554  A
C2137      O2586   1.229       .  A
C2137      C2445   1.489       .  S
C2138      C2308   1.484       .  S
C2138      C2139   1.410       .  A
C2138      C2143   1.400       .  A
C2139      C2140   1.414       .  A
C2139      H2144   1.084       .  S
C2140      C2147   1.497       .  S
C2140      C2141   1.416       .  A
C2141      C2142   1.416       .  A
C2141      H2145   1.083       .  S
C2142      C2143   1.385       .  A
C2143      H2146   1.067       .  S
C2147      C2148   1.409       .  A
C2147      C2152   1.411       .  A
C2148      C2149   1.411       .  A
C2148      H2153   1.084       .  S
C2149      C2167   1.493       .  S
C2149      C2150   1.414       .  A
C2150      C2151   1.411       .  A
C2150      H2154   1.084       .  S
C2151      C2158   1.499       .  S
C2151      C2152   1.411       .  A
C2152      H2155   1.084       .  S
C2156      C2157   1.419       .  A
C2156      C2161   1.383       .  A
C2157      C2158   1.417       .  A
C2157      H2162   1.083       .  S
C2158      C2159   1.413       .  A
C2159      C2160   1.410       .  A
C2159      H2163   1.084       .  S
C2160      C2161   1.397       .  A
C2161      H2164   1.066       .  S
C2165      C2166   1.415       .  A
C2165      C2170   1.398       .  A
C2166      C2167   1.415       .  A
C2166      H2171   1.084       .  S
C2167      C2168   1.412       .  A
C2168      C2169   1.411       .  A
C2168      H2172   1.084       .  S
C2169      C2170   1.385       .  A
C2170      H2635   1.056       .  S
H2173      C2632   1.056       .  S
C2174      C2187   1.497       .  S
C2174      C2175   1.411       .  A
C2174      C2179   1.411       .  A
C2175      C2176   1.412       .  A
C2175      H2180   1.084       .  S
C2176      C2203   1.496       .  S
C2176      C2177   1.415       .  A
C2177      C2178   1.411       .  A
C2177      H2181   1.084       .  S
C2178      C2194   1.501       .  S
C2178      C2179   1.411       .  A
C2179      H2182   1.084       .  S
C2183      C2184   1.383       .  A
C2183      C2188   1.418       .  A
C2184      C2185   1.398       .  A
C2184      H2189   1.062       .  S
C2185      C2186   1.410       .  A
C2186      C2187   1.414       .  A
C2186      H2190   1.084       .  S
C2187      C2188   1.416       .  A
C2188      H2191   1.083       .  S
C2192      C2495   1.489       .  S
C2192      C2193   1.418       .  A
C2192      C2197   1.385       .  A
C2193      C2194   1.417       .  A
C2193      H2198   1.083       .  S
C2194      C2195   1.416       .  A
C2195      C2196   1.412       .  A
C2195      H2199   1.083       .  S
C2196      C2197   1.398       .  A
C2197      H2200   1.069       .  S
C2201      C2202   1.411       .  A
C2201      C2206   1.403       .  A
C2202      C2203   1.411       .  A
C2202      H2207   1.084       .  S
C2203      C2204   1.415       .  A
C2204      C2205   1.417       .  A
C2204      H2208   1.083       .  S
C2205      C2293   1.491       .  S
C2205      C2206   1.388       .  A
C2206      H3133   1.066   1_545  S
H2209      C3130   1.066       .  S
C2210      C2241   1.498       .  S
C2210      C2211   1.412       .  A
C2210      C2215   1.414       .  A
C2211      C2212   1.412       .  A
C2211      H2216   1.084       .  S
C2212      C2232   1.495       .  S
C2212      C2213   1.411       .  A
C2213      C2214   1.408       .  A
C2213      H2217   1.084       .  S
C2214      C2221   1.500       .  S
C2214      C2215   1.413       .  A
C2215      H2218   1.084       .  S
C2219      C2220   1.415       .  A
C2219      C2224   1.394       .  A
C2220      C2221   1.418       .  A
C2220      H2225   1.083       .  S
C2221      C2222   1.417       .  A
C2222      C2223   1.414       .  A
C2222      H2226   1.083       .  S
C2223      C3231   1.485       .  S
C2223      C2224   1.380       .  A
C2224      H2227   1.058       .  S
C2228      C2229   1.400       .  A
C2228      C2233   1.409       .  A
C2229      C2230   1.386       .  A
C2230      C2231   1.417       .  A
C2231      C2232   1.415       .  A
C2231      H2235   1.083       .  S
C2232      C2233   1.412       .  A
C2233      H2236   1.084       .  S
C2237      C2238   1.386       .  A
C2237      C2242   1.416       .  A
C2238      C2239   1.402       .  A
C2238      H2243   1.064       .  S
C2239      C2240   1.414       .  A
C2240      C2241   1.414       .  A
C2240      H2244   1.084       .  S
C2241      C2242   1.413       .  A
C2242      H2245   1.084       .  S
C2246      C2266   1.497       .  S
C2246      C2247   1.409       .  A
C2246      C2251   1.411       .  A
C2247      C2248   1.411       .  A
C2247      H2252   1.084       .  S
C2248      C2259   1.498       .  S
C2248      C2249   1.412       .  A
C2249      C2250   1.414       .  A
C2249      H2253   1.084       .  S
C2250      C2275   1.497       .  S
C2250      C2251   1.410       .  A
C2251      H2254   1.084       .  S
C2255      C2256   1.399       .  A
C2255      C2260   1.409       .  A
C2256      C2257   1.385       .  A
C2256      H2261   1.067       .  S
C2257      C2941   1.490       .  S
C2257      C2258   1.419       .  A
C2258      C2259   1.417       .  A
C2258      H2262   1.083       .  S
C2259      C2260   1.412       .  A
C2260      H2263   1.084       .  S
C2264      C2265   1.413       .  A
C2264      C2269   1.397       .  A
C2265      C2266   1.416       .  A
C2265      H2270   1.083       .  S
C2266      C2267   1.416       .  A
C2267      C2268   1.413       .  A
C2267      H2271   1.083       .  S
C2268      C2309   1.487       .  S
C2268      C2269   1.384       .  A
C2269      H2272   1.061       .  S
C2273      C2274   1.414       .  A
C2273      C2278   1.398       .  A
C2274      C2275   1.414       .  A
C2274      H2279   1.084       .  S
C2275      C2276   1.414       .  A
C2276      C2277   1.414       .  A
C2276      H2280   1.083       .  S
C2277      C2580   1.486       .  S
C2277      C2278   1.385       .  A
C2278      H2743   1.059       .  S
H2281      C2740   1.059       .  S
O2282      C2290   1.223       .  A
O2282     Co2302   1.945       .  S
O2283     Co2303   1.940       .  S
O2284      C3216   1.220       .  A
O2284     Co2304   1.939       .  S
O2285      C2293   1.225       .  A
O2285     Co2305   1.946       .  S
O2286      C2292   1.267   1_545  A
O2286     Co2303   2.094       .  S
O2287      C3217   1.270       .  A
O2287     Co2302   2.092       .  S
O2288      C2291   1.267   1_655  A
O2288     Co2305   2.093       .  S
O2289     Co2304   2.090       .  S
C2292      O3208   1.220       .  A
C2292      C2979   1.487       .  S
C2293      O3211   1.270   1_545  A
O2294      C3231   1.229       .  A
O2294     Co2302   1.937       .  S
O2295      C2308   1.228       .  A
O2295     Co2303   1.931       .  S
O2296      C2309   1.232       .  A
O2296     Co2304   1.938       .  S
O2297     Co2305   1.930       .  S
O2298      C2310   1.275       .  A
O2298     Co2303   2.095       .  S
O2299     Co2302   2.085       .  S
O2300      C2307   1.278   1_545  A
O2300     Co2305   2.086       .  S
O2301      C3232   1.274       .  A
O2301     Co2304   2.092       .  S
Co2303     O2306   2.120   1_545  S
Co2304     O3230   2.119       .  S
O2306     Co3228   2.119       .  S
C2307      O3218   1.229       .  A
C2307      C3147   1.485       .  S
C2308      O3225   1.274   1_545  A
O2311      C2319   1.223       .  A
O2311     Co3255   1.937       .  S
O2312      C2320   1.227       .  A
O2312     Co2332   1.941       .  S
O2313      C2321   1.225       .  A
O2313     Co2333   1.939       .  S
O2314      C2322   1.225       .  A
O2314     Co3258   1.937       .  S
O2315      C2321   1.274       .  A
O2315     Co2332   2.094       .  S
O2316      C2322   1.268       .  A
O2316     Co3255   2.080       .  S
O2317      C2320   1.275       .  A
O2317     Co3258   2.088       .  S
O2318      C2319   1.272       .  A
O2318     Co2333   2.095       .  S
C2319      C2681   1.488       .  S
C2320      C2521   1.486       .  S
C2321      C2400   1.490       .  S
C2322      C2717   1.480       .  S
O2323      C2336   1.227       .  A
O2323     Co2331   1.936   1_545  S
O2324      C2337   1.224       .  A
O2324     Co3256   1.939       .  S
O2325      C2338   1.223       .  A
O2325     Co3257   1.934   1_545  S
O2326      C2339   1.228       .  A
O2326     Co2334   1.943       .  S
O2327      C2339   1.274       .  A
O2327     Co3256   2.088       .  S
O2328      C2338   1.269       .  A
O2328     Co2331   2.093   1_545  S
O2329      C2336   1.271       .  A
O2329     Co2334   2.085       .  S
O2330      C2337   1.276       .  A
O2330     Co3257   2.097   1_545  S
Co2331     O3235   1.937       .  S
Co2331     O3240   2.080       .  S
Co2331     O3259   2.118   1_565  S
Co2332     O3248   1.939       .  S
Co2332     O3251   2.088       .  S
Co2332     O2335   2.113       .  S
Co2333     O3249   1.934       .  S
Co2333     O3254   2.097       .  S
Co2333     O2335   2.110       .  S
Co2334     O3238   1.937   1_545  S
Co2334     O3241   2.088   1_545  S
Co2334     O3259   2.111       .  S
O2335     Co3255   2.118       .  S
O2335     Co3258   2.111       .  S
C2336      C2562   1.482       .  S
C2337      C2456   1.488       .  S
C2338      C2663   1.487       .  S
C2339      C2604   1.488       .  S
O2340      C2348   1.223       .  A
O2341      C2349   1.228       .  A
O2341     Co2361   1.942       .  S
O2342      C2350   1.227       .  A
O2342     Co2362   1.937   1_655  S
O2343      C2351   1.223       .  A
O2344      C2350   1.269       .  A
O2344     Co2361   2.082       .  S
O2345      C2351   1.274       .  A
O2346      C2349   1.274       .  A
O2347      C2348   1.271       .  A
O2347     Co2362   2.095   1_655  S
C2348      C2418   1.487       .  S
C2349      C2546   1.489       .  S
C2350      C2690   1.483       .  S
C2351      C2645   1.488       .  S
O2352      C2365   1.226       .  A
O2352     Co2360   1.940       .  S
O2353      C2366   1.225       .  A
O2354      C2367   1.224       .  A
O2355      C2368   1.226       .  A
O2355     Co2363   1.940       .  S
O2356      C2368   1.273       .  A
O2357      C2367   1.271       .  A
O2357     Co2360   2.092       .  S
O2358      C2365   1.275       .  A
O2358     Co2363   2.095       .  S
O2359      C2366   1.271       .  A
Co2360     O2364   2.117       .  S
Co2363     O2364   2.106       .  S
C2365      C2526   1.490       .  S
C2366      C2622   1.479       .  S
C2367      C2726   1.488       .  S
C2368      C2461   1.484       .  S
O2369      C2377   1.228       .  A
O2370      C2378   1.229       .  A
O2370     Co2390   1.937   1_556  S
O2371      C2379   1.232       .  A
O2371     Co2391   1.938   1_556  S
O2372      C2380   1.226       .  A
O2373      C2379   1.277       .  A
O2373     Co2390   2.084   1_556  S
O2374      C2380   1.275       .  A
O2375      C2378   1.278       .  A
O2376      C2377   1.275       .  A
O2376     Co2391   2.094   1_556  S
C2377      C2443   1.486       .  S
C2378      C2427   1.486       .  S
C2379      C2510   1.486       .  S
C2380      C2658   1.484       .  S
O2381      C2394   1.222       .  A
O2381     Co2389   1.940       .  S
O2382      C2395   1.223       .  A
O2383      C2396   1.220       .  A
O2384      C2397   1.225       .  A
O2384     Co2392   1.946       .  S
O2385      C2397   1.270       .  A
O2386      C2396   1.267       .  A
O2386     Co2389   2.095       .  S
O2387      C2394   1.267       .  A
O2387     Co2392   2.094       .  S
O2388      C2395   1.270       .  A
Co2390     O2393   2.115   1_554  S
Co2391     O2393   2.118   1_554  S
C2394      C2627   1.490       .  S
C2395      C2699   1.487       .  S
C2396      C2735   1.488       .  S
C2397      C2555   1.489       .  S
C2398      C2497   1.481       .  S
C2398      C2399   1.400       .  A
C2398      C2403   1.408       .  A
C2399      C2400   1.385       .  A
C2399      H2404   1.064       .  S
C2400      C2401   1.417       .  A
C2401      C2402   1.415       .  A
C2401      H2405   1.083       .  S
C2402      C2409   1.495       .  S
C2402      C2403   1.412       .  A
C2403      H2406   1.084       .  S
C2407      C2429   1.501       .  S
C2407      C2408   1.408       .  A
C2407      C2412   1.413       .  A
C2408      C2409   1.411       .  A
C2408      H2413   1.084       .  S
C2409      C2410   1.412       .  A
C2410      C2411   1.412       .  A
C2410      H2414   1.084       .  S
C2411      C2420   1.498       .  S
C2411      C2412   1.414       .  A
C2412      H2415   1.084       .  S
C2416      C2752   1.487       .  S
C2416      C2417   1.386       .  A
C2416      C2421   1.416       .  A
C2417      C2418   1.401       .  A
C2418      C2419   1.414       .  A
C2419      C2420   1.414       .  A
C2419      H2423   1.084       .  S
C2420      C2421   1.413       .  A
C2421      H2424   1.084       .  S
C2425      C2579   1.488       .  S
C2425      C2426   1.394       .  A
C2425      C2430   1.415       .  A
C2426      C2427   1.380       .  A
C2426      H2431   1.058       .  S
C2427      C2428   1.415       .  A
C2428      C2429   1.418       .  A
C2428      H2432   1.083       .  S
C2429      C2430   1.418       .  A
C2430      H2433   1.083       .  S
C2434      C2454   1.499       .  S
C2434      C2435   1.411       .  A
C2434      C2439   1.411       .  A
C2435      C2436   1.414       .  A
C2435      H2440   1.084       .  S
C2436      C2463   1.493       .  S
C2436      C2437   1.411       .  A
C2437      C2438   1.409       .  A
C2437      H2441   1.084       .  S
C2438      C2447   1.497       .  S
C2438      C2439   1.411       .  A
C2439      H2442   1.084       .  S
C2443      C2444   1.400       .  A
C2443      C2448   1.411       .  A
C2444      C2445   1.386       .  A
C2444      H2449   1.066   1_556  S
C2445      C2446   1.416       .  A
C2446      C2447   1.416       .  A
C2446      H2450   1.083       .  S
C2447      C2448   1.415       .  A
C2448      H2451   1.084       .  S
C2452      C2478   1.479       .  S
C2452      C2453   1.410       .  A
C2452      C2457   1.397       .  A
C2453      C2454   1.413       .  A
C2453      H2458   1.084       .  S
C2454      C2455   1.417       .  A
C2455      C2456   1.420       .  A
C2455      H2459   1.083       .  S
C2456      C2457   1.383       .  A
C2457      H2460   1.066       .  S
C2461      C2462   1.411       .  A
C2461      C2466   1.385       .  A
C2462      C2463   1.412       .  A
C2462      H2467   1.084       .  S
C2463      C2464   1.414       .  A
C2464      C2465   1.414       .  A
C2464      H2468   1.084       .  S
C2465      C2466   1.398       .  A
C2466      H2469   1.056       .  S
O2470      C2478   1.225       .  A
O2470     Co2490   1.936       .  S
O2471      C3403   1.225       .  A
O2471     Co2491   1.940       .  S
O2472     Co2492   1.937       .  S
O2473      C2481   1.226       .  A
O2473     Co2493   1.940       .  S
O2474      C2480   1.271       .  A
O2474     Co2491   2.091       .  S
O2475     Co2490   2.085       .  S
O2476      C2479   1.275   1_545  A
O2476     Co2493   2.095       .  S
O2477      C3402   1.270       .  A
O2477     Co2492   2.082       .  S
C2478      O3401   1.270   1_545  A
C2479      O3395   1.225       .  A
C2479      C3643   1.490       .  S
C2481      C2631   1.484       .  S
O2482     Co2490   1.942       .  S
O2483      C2496   1.223       .  A
O2483     Co2491   1.934       .  S
O2484      C2497   1.228       .  A
O2484     Co2492   1.937       .  S
O2485      C3422   1.223       .  A
O2485     Co2493   1.939       .  S
O2486      C2498   1.274       .  A
O2486     Co2491   2.094       .  S
O2487      C3421   1.269   1_545  A
O2487     Co2490   2.080       .  S
O2488      C2495   1.274       .  A
O2488     Co2493   2.091       .  S
O2489     Co2492   2.096       .  S
Co2490     O2956   2.116       .  S
Co2491     O2494   2.116       .  S
Co2493     O3418   2.106       .  S
O2494     Co2952   2.116       .  S
O2494     Co3417   2.106       .  S
C2496      C2701   1.487       .  S
C2497      O3411   1.269       .  A
C2498      O3409   1.223       .  A
C2498      C3490   1.487       .  S
C2499      C2512   1.496       .  S
C2499      C2500   1.409       .  A
C2499      C2504   1.411       .  A
C2500      C2501   1.411       .  A
C2500      H2505   1.084       .  S
C2501      C2528   1.498       .  S
C2501      C2502   1.413       .  A
C2502      C2503   1.415       .  A
C2502      H2506   1.084       .  S
C2503      C2519   1.497       .  S
C2503      C2504   1.410       .  A
C2504      H2507   1.084       .  S
C2508      C2509   1.397       .  A
C2508      C2513   1.413       .  A
C2509      C2510   1.384       .  A
C2509      H2514   1.061       .  S
C2510      C2511   1.413       .  A
C2511      C2512   1.416       .  A
C2511      H2515   1.083       .  S
C2512      C2513   1.416       .  A
C2513      H2516   1.083       .  S
C2517      C3678   1.487       .  S
C2517      C2518   1.414       .  A
C2517      C2522   1.398       .  A
C2518      C2519   1.414       .  A
C2518      H2523   1.084       .  S
C2519      C2520   1.415       .  A
C2520      C2521   1.415       .  A
C2520      H2524   1.083       .  S
C2521      C2522   1.385       .  A
C2522      H2525   1.060       .  S
C2526      C2527   1.419       .  A
C2526      C2531   1.386       .  A
C2527      C2528   1.417       .  A
C2527      H2532   1.083       .  S
C2528      C2529   1.413       .  A
C2529      C2530   1.410       .  A
C2529      H2533   1.084       .  S
C2530      C2582   1.480       .  S
C2530      C2531   1.398       .  A
C2531      H2534   1.067       .  S
C2535      C2557   1.495       .  S
C2535      C2536   1.415       .  A
C2535      C2540   1.412       .  A
C2536      C2537   1.411       .  A
C2536      H2541   1.084       .  S
C2537      C2548   1.501       .  S
C2537      C2538   1.411       .  A
C2538      C2539   1.411       .  A
C2538      H2542   1.084       .  S
C2539      C2564   1.496       .  S
C2539      C2540   1.411       .  A
C2540      H2543   1.084       .  S
C2544      C2545   1.399       .  A
C2544      C2549   1.412       .  A
C2545      C2546   1.385       .  A
C2546      C2547   1.418       .  A
C2547      C2548   1.417       .  A
C2547      H2551   1.083       .  S
C2548      C2549   1.416       .  A
C2549      H2552   1.084       .  S
C2553      C2598   1.487       .  S
C2553      C2554   1.403       .  A
C2553      C2558   1.412       .  A
C2554      C2555   1.388       .  A
C2554      H2559   1.066       .  S
C2555      C2556   1.417       .  A
C2556      C2557   1.414       .  A
C2556      H2560   1.083       .  S
C2557      C2558   1.412       .  A
C2558      H2561   1.084       .  S
C2562      C2563   1.410       .  A
C2562      C2567   1.398       .  A
C2563      C2564   1.413       .  A
C2563      H2568   1.084       .  S
C2564      C2565   1.416       .  A
C2565      C2566   1.418       .  A
C2565      H2569   1.083       .  S
C2566      C3422   1.487       .  S
C2566      C2567   1.383       .  A
C2567      H3494   1.062       .  S
H2570      C3491   1.062       .  S
O2571      C2579   1.223       .  A
O2571     Co2591   1.937       .  S
O2572     Co2592   1.941       .  S
O2573     Co2593   1.939       .  S
O2574      C2582   1.225       .  A
O2574     Co2594   1.937       .  S
O2575      C2581   1.273       .  A
O2575     Co2592   2.093       .  S
O2576     Co2591   2.081       .  S
O2577      C2580   1.275   1_556  A
O2577     Co2594   2.088       .  S
O2578     Co2593   2.096       .  S
O2583     Co2591   1.936       .  S
O2584      C2597   1.224       .  A
O2584     Co2592   1.939       .  S
O2585      C2598   1.222       .  A
O2585     Co2593   1.934       .  S
O2586     Co2594   1.943       .  S
O2587      C2599   1.273       .  A
O2587     Co2592   2.087       .  S
O2588     Co2591   2.094       .  S
O2589      C2596   1.272       .  A
O2589     Co2594   2.086       .  S
O2590     Co2593   2.095       .  S
Co2594     O2595   2.111       .  S
C2597      C2618   1.487       .  S
C2600      C2770   1.484       .  S
C2600      C2601   1.410       .  A
C2600      C2605   1.400       .  A
C2601      C2602   1.414       .  A
C2601      H2606   1.084       .  S
C2602      C2609   1.497       .  S
C2602      C2603   1.416       .  A
C2603      C2604   1.416       .  A
C2603      H2607   1.083       .  S
C2604      C2605   1.385       .  A
C2605      H2608   1.067       .  S
C2609      C2610   1.409       .  A
C2609      C2614   1.411       .  A
C2610      C2611   1.411       .  A
C2610      H2615   1.084       .  S
C2611      C2629   1.493       .  S
C2611      C2612   1.414       .  A
C2612      C2613   1.411       .  A
C2612      H2616   1.084       .  S
C2613      C2620   1.499       .  S
C2613      C2614   1.411       .  A
C2614      H2617   1.084       .  S
C2618      C2619   1.419       .  A
C2618      C2623   1.383       .  A
C2619      C2620   1.417       .  A
C2619      H2624   1.083       .  S
C2620      C2621   1.413       .  A
C2621      C2622   1.410       .  A
C2621      H2625   1.084       .  S
C2622      C2623   1.397       .  A
C2623      H2626   1.066       .  S
C2627      C2628   1.415       .  A
C2627      C2632   1.398       .  A
C2628      C2629   1.415       .  A
C2628      H2633   1.084       .  S
C2629      C2630   1.412       .  A
C2630      C2631   1.411       .  A
C2630      H2634   1.084       .  S
C2631      C2632   1.385       .  A
C2636      C2649   1.497       .  S
C2636      C2637   1.411       .  A
C2636      C2641   1.411       .  A
C2637      C2638   1.412       .  A
C2637      H2642   1.084       .  S
C2638      C2665   1.496       .  S
C2638      C2639   1.415       .  A
C2639      C2640   1.411       .  A
C2639      H2643   1.084       .  S
C2640      C2656   1.501       .  S
C2640      C2641   1.411       .  A
C2641      H2644   1.084       .  S
C2645      C2646   1.383       .  A
C2645      C2650   1.418       .  A
C2646      C2647   1.398       .  A
C2646      H2651   1.062       .  S
C2647      C2648   1.410       .  A
C2648      C2649   1.414       .  A
C2648      H2652   1.084       .  S
C2649      C2650   1.416       .  A
C2650      H2653   1.083       .  S
C2654      C2655   1.418       .  A
C2654      C2659   1.385       .  A
C2655      C2656   1.417       .  A
C2655      H2660   1.083       .  S
C2656      C2657   1.416       .  A
C2657      C2658   1.412       .  A
C2657      H2661   1.083       .  S
C2658      C2659   1.398       .  A
C2659      H2662   1.069   1_556  S
C2663      C2664   1.411       .  A
C2663      C2668   1.403       .  A
C2664      C2665   1.411       .  A
C2664      H2669   1.084       .  S
C2665      C2666   1.415       .  A
C2666      C2667   1.417       .  A
C2666      H2670   1.083       .  S
C2667      C2755   1.491       .  S
C2667      C2668   1.388       .  A
C2668      H3595   1.066   1_545  S
H2671      C3592   1.066       .  S
C2672      C2703   1.498       .  S
C2672      C2673   1.412       .  A
C2672      C2677   1.414       .  A
C2673      C2674   1.412       .  A
C2673      H2678   1.084       .  S
C2674      C2694   1.495       .  S
C2674      C2675   1.411       .  A
C2675      C2676   1.408       .  A
C2675      H2679   1.084       .  S
C2676      C2683   1.500       .  S
C2676      C2677   1.413       .  A
C2677      H2680   1.084       .  S
C2681      C2682   1.415       .  A
C2681      C2686   1.394       .  A
C2682      C2683   1.418       .  A
C2682      H2687   1.083       .  S
C2683      C2684   1.417       .  A
C2684      C2685   1.414       .  A
C2684      H2688   1.083       .  S
C2685      C3693   1.485       .  S
C2685      C2686   1.380       .  A
C2686      H2689   1.058       .  S
C2690      C2691   1.400       .  A
C2690      C2695   1.409       .  A
C2691      C2692   1.386       .  A
C2692      C2693   1.417       .  A
C2693      C2694   1.415       .  A
C2693      H2697   1.083       .  S
C2694      C2695   1.412       .  A
C2695      H2698   1.084       .  S
C2699      C2700   1.386       .  A
C2699      C2704   1.416       .  A
C2700      C2701   1.402       .  A
C2700      H2705   1.064       .  S
C2701      C2702   1.414       .  A
C2702      C2703   1.414       .  A
C2702      H2706   1.084       .  S
C2703      C2704   1.413       .  A
C2704      H2707   1.084       .  S
C2708      C2728   1.497       .  S
C2708      C2709   1.409       .  A
C2708      C2713   1.411       .  A
C2709      C2710   1.411       .  A
C2709      H2714   1.084       .  S
C2710      C2721   1.498       .  S
C2710      C2711   1.412       .  A
C2711      C2712   1.414       .  A
C2711      H2715   1.084       .  S
C2712      C2737   1.497       .  S
C2712      C2713   1.410       .  A
C2713      H2716   1.084       .  S
C2717      C2718   1.399       .  A
C2717      C2722   1.409       .  A
C2718      C2719   1.385       .  A
C2718      H2723   1.067       .  S
C2719      C3403   1.490       .  S
C2719      C2720   1.419       .  A
C2720      C2721   1.417       .  A
C2720      H2724   1.083       .  S
C2721      C2722   1.412       .  A
C2722      H2725   1.084       .  S
C2726      C2727   1.413       .  A
C2726      C2731   1.397       .  A
C2727      C2728   1.416       .  A
C2727      H2732   1.083       .  S
C2728      C2729   1.416       .  A
C2729      C2730   1.413       .  A
C2729      H2733   1.083       .  S
C2730      C2771   1.487       .  S
C2730      C2731   1.384       .  A
C2731      H2734   1.061       .  S
C2735      C2736   1.414       .  A
C2735      C2740   1.398       .  A
C2736      C2737   1.414       .  A
C2736      H2741   1.084       .  S
C2737      C2738   1.414       .  A
C2738      C2739   1.414       .  A
C2738      H2742   1.083       .  S
C2739      C2740   1.385       .  A
O2744      C2752   1.223       .  A
O2744     Co2764   1.945       .  S
O2745     Co2765   1.940       .  S
O2746      C3678   1.220       .  A
O2746     Co2766   1.939       .  S
O2747      C2755   1.225       .  A
O2747     Co2767   1.946       .  S
O2748      C2754   1.267   1_545  A
O2748     Co2765   2.094       .  S
O2749      C3679   1.270       .  A
O2749     Co2764   2.092       .  S
O2750      C2753   1.267   1_655  A
O2750     Co2767   2.093       .  S
O2751     Co2766   2.090       .  S
C2754      O3670   1.220       .  A
C2754      C3441   1.487       .  S
C2755      O3673   1.270   1_545  A
O2756      C3693   1.229       .  A
O2756     Co2764   1.937       .  S
O2757      C2770   1.228       .  A
O2757     Co2765   1.931       .  S
O2758      C2771   1.232       .  A
O2758     Co2766   1.938       .  S
O2759     Co2767   1.930       .  S
O2760      C2772   1.275       .  A
O2760     Co2765   2.095       .  S
O2761     Co2764   2.085       .  S
O2762      C2769   1.278   1_545  A
O2762     Co2767   2.086       .  S
O2763      C3694   1.274       .  A
O2763     Co2766   2.092       .  S
Co2765     O2768   2.120   1_545  S
Co2766     O3692   2.119       .  S
O2768     Co3690   2.119       .  S
C2769      O3680   1.229       .  A
C2769      C3609   1.485       .  S
C2770      O3687   1.274   1_545  A
O2773      C2781   1.223       .  A
O2774      C2782   1.227       .  A
O2774     Co2794   1.941   1_565  S
O2775      C2783   1.225       .  A
O2775     Co2795   1.939       .  S
O2776      C2784   1.225       .  A
O2777      C2783   1.274       .  A
O2777     Co2794   2.094   1_565  S
O2778      C2784   1.268       .  A
O2779      C2782   1.275       .  A
O2780      C2781   1.272       .  A
O2780     Co2795   2.095       .  S
C2781      C3143   1.488       .  S
C2782      C2983   1.486       .  S
C2783      C2862   1.490       .  S
C2784      C3179   1.480       .  S
O2785      C2798   1.227       .  A
O2785     Co2793   1.936       .  S
O2786      C2799   1.224       .  A
O2787      C2800   1.223       .  A
O2788      C2801   1.228       .  A
O2788     Co2796   1.943       .  S
O2789      C2801   1.274       .  A
O2790      C2800   1.269       .  A
O2790     Co2793   2.093       .  S
O2791      C2798   1.271       .  A
O2791     Co2796   2.085       .  S
O2792      C2799   1.276       .  A
Co2794     O2797   2.113       .  S
Co2795     O2797   2.110   1_565  S
C2798      C3024   1.482       .  S
C2799      C2918   1.488       .  S
C2800      C3125   1.487       .  S
C2801      C3066   1.488       .  S
O2802      C2810   1.223       .  A
O2803      C2811   1.227       .  A
O2803     Co2823   1.942       .  S
O2804      C2812   1.227       .  A
O2804     Co2824   1.937   1_655  S
O2805      C2813   1.223       .  A
O2806      C2812   1.269       .  A
O2806     Co2823   2.082       .  S
O2807      C2813   1.274       .  A
O2808      C2811   1.274       .  A
O2809      C2810   1.271       .  A
O2809     Co2824   2.095   1_655  S
C2810      C2880   1.487       .  S
C2811      C3008   1.489       .  S
C2812      C3152   1.483       .  S
C2813      C3107   1.488       .  S
O2814      C2827   1.226       .  A
O2814     Co2822   1.940       .  S
O2815      C2828   1.225       .  A
O2816      C2829   1.224       .  A
O2817      C2830   1.226       .  A
O2817     Co2825   1.940       .  S
O2818      C2830   1.273       .  A
O2819      C2829   1.271       .  A
O2819     Co2822   2.092       .  S
O2820      C2827   1.275       .  A
O2820     Co2825   2.095       .  S
O2821      C2828   1.271       .  A
Co2822     O2826   2.117       .  S
Co2825     O2826   2.106       .  S
C2827      C2988   1.490       .  S
C2828      C3084   1.479       .  S
C2829      C3188   1.488       .  S
C2830      C2923   1.484       .  S
O2831      C2839   1.228       .  A
O2831     Co3313   1.931       .  S
O2832      C2840   1.229       .  A
O2832     Co2852   1.937       .  S
O2833      C2841   1.232       .  A
O2833     Co2853   1.938       .  S
O2834      C2842   1.226       .  A
O2834     Co3316   1.930       .  S
O2835      C2841   1.277       .  A
O2835     Co2852   2.084       .  S
O2836      C2842   1.275       .  A
O2836     Co3313   2.095       .  S
O2837      C2840   1.278       .  A
O2837     Co3316   2.087       .  S
O2838      C2839   1.275       .  A
O2838     Co2853   2.094       .  S
C2839      C2905   1.486       .  S
C2840      C2889   1.486       .  S
C2841      C2972   1.486       .  S
C2842      C3120   1.484       .  S
O2843      C2856   1.222       .  A
O2843     Co2851   1.940       .  S
O2844      C2857   1.223       .  A
O2844     Co3314   1.945       .  S
O2845      C2858   1.220       .  A
O2845     Co3315   1.939       .  S
O2846      C2859   1.225       .  A
O2846     Co2854   1.946       .  S
O2847      C2859   1.270       .  A
O2847     Co3314   2.090       .  S
O2848      C2858   1.267       .  A
O2848     Co2851   2.095       .  S
O2849      C2856   1.267       .  A
O2849     Co2854   2.094       .  S
O2850      C2857   1.270       .  A
O2850     Co3315   2.092       .  S
Co2851     O3293   1.931   1_554  S
Co2851     O3298   2.095   1_554  S
Co2851     O3317   2.122   1_554  S
Co2852     O3306   1.945       .  S
Co2852     O3309   2.090       .  S
Co2852     O2855   2.115       .  S
Co2853     O3307   1.939       .  S
Co2853     O3312   2.092       .  S
Co2853     O2855   2.118       .  S
Co2854     O3296   1.930   1_554  S
Co2854     O3299   2.087   1_554  S
Co2854     O3317   2.119   1_554  S
O2855     Co3313   2.122       .  S
O2855     Co3316   2.119       .  S
C2856      C3089   1.490       .  S
C2857      C3161   1.487       .  S
C2858      C3197   1.488       .  S
C2859      C3017   1.489       .  S
C2860      C2959   1.481       .  S
C2860      C2861   1.400       .  A
C2860      C2865   1.408       .  A
C2861      C2862   1.385       .  A
C2861      H2866   1.064       .  S
C2862      C2863   1.417       .  A
C2863      C2864   1.415       .  A
C2863      H2867   1.083       .  S
C2864      C2871   1.495       .  S
C2864      C2865   1.412       .  A
C2865      H2868   1.084       .  S
C2869      C2891   1.501       .  S
C2869      C2870   1.408       .  A
C2869      C2874   1.413       .  A
C2870      C2871   1.411       .  A
C2870      H2875   1.084       .  S
C2871      C2872   1.412       .  A
C2872      C2873   1.412       .  A
C2872      H2876   1.084       .  S
C2873      C2882   1.498       .  S
C2873      C2874   1.414       .  A
C2874      H2877   1.084       .  S
C2878      C3214   1.487       .  S
C2878      C2879   1.386       .  A
C2878      C2883   1.416       .  A
C2879      C2880   1.401       .  A
C2880      C2881   1.414       .  A
C2881      C2882   1.414       .  A
C2881      H2885   1.084       .  S
C2882      C2883   1.413       .  A
C2883      H2886   1.084       .  S
C2887      C3041   1.488       .  S
C2887      C2888   1.394       .  A
C2887      C2892   1.415       .  A
C2888      C2889   1.380       .  A
C2888      H2893   1.058       .  S
C2889      C2890   1.415       .  A
C2890      C2891   1.418       .  A
C2890      H2894   1.083       .  S
C2891      C2892   1.418       .  A
C2892      H2895   1.083       .  S
C2896      C2916   1.499       .  S
C2896      C2897   1.411       .  A
C2896      C2901   1.411       .  A
C2897      C2898   1.414       .  A
C2897      H2902   1.084       .  S
C2898      C2925   1.493       .  S
C2898      C2899   1.411       .  A
C2899      C2900   1.409       .  A
C2899      H2903   1.084       .  S
C2900      C2909   1.497       .  S
C2900      C2901   1.411       .  A
C2901      H2904   1.084       .  S
C2905      C2906   1.400       .  A
C2905      C2910   1.411       .  A
C2906      C2907   1.386       .  A
C2906      H2911   1.066       .  S
C2907      C3523   1.489       .  S
C2907      C2908   1.416       .  A
C2908      C2909   1.416       .  A
C2908      H2912   1.083       .  S
C2909      C2910   1.415       .  A
C2910      H2913   1.084       .  S
C2914      C2940   1.479       .  S
C2914      C2915   1.410       .  A
C2914      C2919   1.397       .  A
C2915      C2916   1.413       .  A
C2915      H2920   1.084       .  S
C2916      C2917   1.417       .  A
C2917      C2918   1.420       .  A
C2917      H2921   1.083       .  S
C2918      C2919   1.383       .  A
C2919      H2922   1.066       .  S
C2923      C2924   1.411       .  A
C2923      C2928   1.385       .  A
C2924      C2925   1.412       .  A
C2924      H2929   1.084       .  S
C2925      C2926   1.414       .  A
C2926      C2927   1.414       .  A
C2926      H2930   1.084       .  S
C2927      C2928   1.398       .  A
C2928      H2931   1.056       .  S
O2932      C2940   1.225       .  A
O2932     Co2952   1.936       .  S
O2933     Co2953   1.940       .  S
O2934      C3404   1.224       .  A
O2934     Co2954   1.937       .  S
O2935      C2943   1.226       .  A
O2935     Co2955   1.940       .  S
O2936      C2942   1.271   1_554  A
O2936     Co2953   2.091       .  S
O2937      C3405   1.273       .  A
O2937     Co2952   2.085       .  S
O2938      C2941   1.275       .  A
O2938     Co2955   2.095       .  S
O2939     Co2954   2.082       .  S
C2942      O3396   1.224       .  A
C2942      C3432   1.487       .  S
C2943      O3399   1.273   1_554  A
C2943      C3093   1.484       .  S
O2944      C3419   1.228       .  A
O2944     Co2952   1.942       .  S
O2945      C2958   1.223       .  A
O2945     Co2953   1.934       .  S
O2946      C2959   1.228       .  A
O2946     Co2954   1.937       .  S
O2947     Co2955   1.940       .  S
O2948      C2960   1.274   1_565  A
O2948     Co2953   2.094       .  S
O2949     Co2952   2.080       .  S
O2950      C2957   1.274   1_554  A
O2950     Co2955   2.091       .  S
O2951      C3420   1.271       .  A
O2951     Co2954   2.096       .  S
Co2953     O2956   2.116   1_564  S
Co2954     O3418   2.114   1_565  S
O2956     Co3416   2.114   1_545  S
C2957      O3406   1.228       .  A
C2957      C3578   1.489       .  S
C2958      O3413   1.271   1_554  A
C2958      C3163   1.487       .  S
C2961      C2974   1.496       .  S
C2961      C2962   1.409       .  A
C2961      C2966   1.411       .  A
C2962      C2963   1.411       .  A
C2962      H2967   1.084       .  S
C2963      C2990   1.498       .  S
C2963      C2964   1.413       .  A
C2964      C2965   1.415       .  A
C2964      H2968   1.084       .  S
C2965      C2981   1.497       .  S
C2965      C2966   1.410       .  A
C2966      H2969   1.084       .  S
C2970      C3404   1.487       .  S
C2970      C2971   1.397       .  A
C2970      C2975   1.413       .  A
C2971      C2972   1.384       .  A
C2971      H2976   1.061       .  S
C2972      C2973   1.413       .  A
C2973      C2974   1.416       .  A
C2973      H2977   1.083       .  S
C2974      C2975   1.416       .  A
C2975      H2978   1.083       .  S
C2979      C2980   1.414       .  A
C2979      C2984   1.398       .  A
C2980      C2981   1.414       .  A
C2980      H2985   1.084       .  S
C2981      C2982   1.415       .  A
C2982      C2983   1.415       .  A
C2982      H2986   1.083       .  S
C2983      C2984   1.385       .  A
C2984      H2987   1.060       .  S
C2988      C2989   1.419       .  A
C2988      C2993   1.386       .  A
C2989      C2990   1.417       .  A
C2989      H2994   1.083       .  S
C2990      C2991   1.413       .  A
C2991      C2992   1.410       .  A
C2991      H2995   1.084       .  S
C2992      C3044   1.480       .  S
C2992      C2993   1.398       .  A
C2993      H2996   1.067       .  S
C2997      C3019   1.495       .  S
C2997      C2998   1.415       .  A
C2997      C3002   1.412       .  A
C2998      C2999   1.411       .  A
C2998      H3003   1.084       .  S
C2999      C3010   1.501       .  S
C2999      C3000   1.411       .  A
C3000      C3001   1.411       .  A
C3000      H3004   1.084       .  S
C3001      C3026   1.496       .  S
C3001      C3002   1.411       .  A
C3002      H3005   1.084       .  S
C3006      C3007   1.399       .  A
C3006      C3011   1.412       .  A
C3007      C3008   1.385       .  A
C3008      C3009   1.418       .  A
C3009      C3010   1.417       .  A
C3009      H3013   1.083       .  S
C3010      C3011   1.416       .  A
C3011      H3014   1.084       .  S
C3015      C3060   1.487       .  S
C3015      C3016   1.403       .  A
C3015      C3020   1.412       .  A
C3016      C3017   1.388       .  A
C3016      H3021   1.066       .  S
C3017      C3018   1.417       .  A
C3018      C3019   1.414       .  A
C3018      H3022   1.083       .  S
C3019      C3020   1.412       .  A
C3020      H3023   1.084       .  S
C3024      C3025   1.410       .  A
C3024      C3029   1.398       .  A
C3025      C3026   1.413       .  A
C3025      H3030   1.084       .  S
C3026      C3027   1.416       .  A
C3027      C3028   1.418       .  A
C3027      H3031   1.083       .  S
C3028      C3029   1.383       .  A
O3033      C3041   1.223       .  A
O3033     Co3053   1.937       .  S
O3034      C3504   1.227       .  A
O3034     Co3054   1.941       .  S
O3035     Co3055   1.939       .  S
O3036      C3044   1.225       .  A
O3036     Co3056   1.937       .  S
O3037      C3043   1.273       .  A
O3037     Co3054   2.093       .  S
O3038     Co3053   2.081       .  S
O3039      C3042   1.275       .  A
O3039     Co3056   2.088       .  S
O3040      C3503   1.272   1_554  A
O3040     Co3055   2.096       .  S
C3041      O3502   1.272       .  A
C3042      O3496   1.227       .  A
C3042      C3663   1.486       .  S
O3045     Co3053   1.936       .  S
O3046      C3059   1.224       .  A
O3046     Co3054   1.939       .  S
O3047      C3060   1.222       .  A
O3047     Co3055   1.934       .  S
O3048      C3523   1.229       .  A
O3048     Co3056   1.943       .  S
O3049      C3061   1.273   1_554  A
O3049     Co3054   2.087       .  S
O3050      C3522   1.269       .  A
O3050     Co3053   2.094       .  S
O3051      C3058   1.272       .  A
O3051     Co3056   2.086       .  S
O3052     Co3055   2.095       .  S
Co3054     O3519   2.113   1_554  S
Co3056     O3057   2.111       .  S
O3057     Co3516   2.113       .  S
C3059      C3080   1.487       .  S
C3060      O3512   1.269   1_554  A
C3061      O3510   1.229       .  A
C3061      C3369   1.489       .  S
C3062      C3232   1.484       .  S
C3062      C3063   1.410       .  A
C3062      C3067   1.400       .  A
C3063      C3064   1.414       .  A
C3063      H3068   1.084       .  S
C3064      C3071   1.497       .  S
C3064      C3065   1.416       .  A
C3065      C3066   1.416       .  A
C3065      H3069   1.083       .  S
C3066      C3067   1.385       .  A
C3067      H3070   1.067       .  S
C3071      C3072   1.409       .  A
C3071      C3076   1.411       .  A
C3072      C3073   1.411       .  A
C3072      H3077   1.084       .  S
C3073      C3091   1.493       .  S
C3073      C3074   1.414       .  A
C3074      C3075   1.411       .  A
C3074      H3078   1.084       .  S
C3075      C3082   1.499       .  S
C3075      C3076   1.411       .  A
C3076      H3079   1.084       .  S
C3080      C3081   1.419       .  A
C3080      C3085   1.383       .  A
C3081      C3082   1.417       .  A
C3081      H3086   1.083       .  S
C3082      C3083   1.413       .  A
C3083      C3084   1.410       .  A
C3083      H3087   1.084       .  S
C3084      C3085   1.397       .  A
C3085      H3088   1.066       .  S
C3089      C3090   1.415       .  A
C3089      C3094   1.398       .  A
C3090      C3091   1.415       .  A
C3090      H3095   1.084       .  S
C3091      C3092   1.412       .  A
C3092      C3093   1.411       .  A
C3092      H3096   1.084       .  S
C3093      C3094   1.385       .  A
C3094      H3559   1.056       .  S
H3097      C3556   1.056       .  S
C3098      C3111   1.497       .  S
C3098      C3099   1.411       .  A
C3098      C3103   1.411       .  A
C3099      C3100   1.412       .  A
C3099      H3104   1.084       .  S
C3100      C3127   1.496       .  S
C3100      C3101   1.415       .  A
C3101      C3102   1.411       .  A
C3101      H3105   1.084       .  S
C3102      C3118   1.501       .  S
C3102      C3103   1.411       .  A
C3103      H3106   1.084       .  S
C3107      C3108   1.383       .  A
C3107      C3112   1.418       .  A
C3108      C3109   1.398       .  A
C3108      H3113   1.062       .  S
C3109      C3110   1.410       .  A
C3110      C3111   1.414       .  A
C3110      H3114   1.084       .  S
C3111      C3112   1.416       .  A
C3112      H3115   1.083       .  S
C3116      C3419   1.489       .  S
C3116      C3117   1.418       .  A
C3116      C3121   1.385       .  A
C3117      C3118   1.417       .  A
C3117      H3122   1.083       .  S
C3118      C3119   1.416       .  A
C3119      C3120   1.412       .  A
C3119      H3123   1.083       .  S
C3120      C3121   1.398       .  A
C3121      H3124   1.069       .  S
C3125      C3126   1.411       .  A
C3125      C3130   1.403       .  A
C3126      C3127   1.411       .  A
C3126      H3131   1.084       .  S
C3127      C3128   1.415       .  A
C3128      C3129   1.417       .  A
C3128      H3132   1.083       .  S
C3129      C3217   1.491       .  S
C3129      C3130   1.388       .  A
C3134      C3165   1.498       .  S
C3134      C3135   1.412       .  A
C3134      C3139   1.414       .  A
C3135      C3136   1.412       .  A
C3135      H3140   1.084       .  S
C3136      C3156   1.495       .  S
C3136      C3137   1.411       .  A
C3137      C3138   1.408       .  A
C3137      H3141   1.084       .  S
C3138      C3145   1.500       .  S
C3138      C3139   1.413       .  A
C3139      H3142   1.084       .  S
C3143      C3144   1.415       .  A
C3143      C3148   1.394       .  A
C3144      C3145   1.418       .  A
C3144      H3149   1.083       .  S
C3145      C3146   1.417       .  A
C3146      C3147   1.414       .  A
C3146      H3150   1.083       .  S
C3147      C3148   1.380       .  A
C3148      H3151   1.058       .  S
C3152      C3153   1.400       .  A
C3152      C3157   1.409       .  A
C3153      C3154   1.386       .  A
C3154      C3155   1.417       .  A
C3155      C3156   1.415       .  A
C3155      H3159   1.083       .  S
C3156      C3157   1.412       .  A
C3157      H3160   1.084       .  S
C3161      C3162   1.386       .  A
C3161      C3166   1.416       .  A
C3162      C3163   1.402       .  A
C3162      H3167   1.064       .  S
C3163      C3164   1.414       .  A
C3164      C3165   1.414       .  A
C3164      H3168   1.084       .  S
C3165      C3166   1.413       .  A
C3166      H3169   1.084       .  S
C3170      C3190   1.497       .  S
C3170      C3171   1.409       .  A
C3170      C3175   1.411       .  A
C3171      C3172   1.411       .  A
C3171      H3176   1.084       .  S
C3172      C3183   1.498       .  S
C3172      C3173   1.412       .  A
C3173      C3174   1.414       .  A
C3173      H3177   1.084       .  S
C3174      C3199   1.497       .  S
C3174      C3175   1.410       .  A
C3175      H3178   1.084       .  S
C3179      C3180   1.399       .  A
C3179      C3184   1.409       .  A
C3180      C3181   1.385       .  A
C3180      H3185   1.067   1_565  S
C3181      C3182   1.419       .  A
C3182      C3183   1.417       .  A
C3182      H3186   1.083       .  S
C3183      C3184   1.412       .  A
C3184      H3187   1.084       .  S
C3188      C3189   1.413       .  A
C3188      C3193   1.397       .  A
C3189      C3190   1.416       .  A
C3189      H3194   1.083       .  S
C3190      C3191   1.416       .  A
C3191      C3192   1.413       .  A
C3191      H3195   1.083       .  S
C3192      C3233   1.487       .  S
C3192      C3193   1.384       .  A
C3193      H3196   1.061       .  S
C3197      C3198   1.414       .  A
C3197      C3202   1.398       .  A
C3198      C3199   1.414       .  A
C3198      H3203   1.084       .  S
C3199      C3200   1.414       .  A
C3200      C3201   1.414       .  A
C3200      H3204   1.083       .  S
C3201      C3504   1.486       .  S
C3201      C3202   1.385       .  A
C3202      H3667   1.059       .  S
H3205      C3664   1.060       .  S
O3206      C3214   1.223       .  A
O3206     Co3226   1.945       .  S
O3207     Co3227   1.940       .  S
O3208     Co3228   1.939       .  S
O3209      C3217   1.225       .  A
O3209     Co3229   1.946       .  S
O3210      C3216   1.267       .  A
O3210     Co3227   2.094       .  S
O3211     Co3226   2.092       .  S
O3212      C3215   1.267   1_655  A
O3212     Co3229   2.093       .  S
O3213     Co3228   2.090       .  S
O3218     Co3226   1.937       .  S
O3219      C3232   1.228       .  A
O3219     Co3227   1.931       .  S
O3220      C3233   1.232       .  A
O3220     Co3228   1.938       .  S
O3221     Co3229   1.930       .  S
O3222      C3234   1.275       .  A
O3222     Co3227   2.095       .  S
O3223     Co3226   2.085       .  S
O3224      C3231   1.278       .  A
O3224     Co3229   2.086       .  S
O3225     Co3228   2.092       .  S
Co3227     O3230   2.120       .  S
O3235      C3243   1.223       .  A
O3236      C3244   1.227       .  A
O3236     Co3256   1.941   1_565  S
O3237      C3245   1.225       .  A
O3237     Co3257   1.939       .  S
O3238      C3246   1.225       .  A
O3239      C3245   1.274       .  A
O3239     Co3256   2.094   1_565  S
O3240      C3246   1.268       .  A
O3241      C3244   1.275       .  A
O3242      C3243   1.272       .  A
O3242     Co3257   2.095       .  S
C3243      C3605   1.488       .  S
C3244      C3445   1.486       .  S
C3245      C3324   1.490       .  S
C3246      C3641   1.480       .  S
O3247      C3260   1.227       .  A
O3247     Co3255   1.936       .  S
O3248      C3261   1.224       .  A
O3249      C3262   1.223       .  A
O3250      C3263   1.228       .  A
O3250     Co3258   1.943       .  S
O3251      C3263   1.274       .  A
O3252      C3262   1.269       .  A
O3252     Co3255   2.093       .  S
O3253      C3260   1.271       .  A
O3253     Co3258   2.085       .  S
O3254      C3261   1.276       .  A
Co3256     O3259   2.113       .  S
Co3257     O3259   2.110   1_565  S
C3260      C3486   1.482       .  S
C3261      C3380   1.488       .  S
C3262      C3587   1.487       .  S
C3263      C3528   1.489       .  S
O3264      C3272   1.223       .  A
O3265      C3273   1.227       .  A
O3265     Co3285   1.942       .  S
O3266      C3274   1.227       .  A
O3266     Co3286   1.937   1_655  S
O3267      C3275   1.223       .  A
O3268      C3274   1.269       .  A
O3268     Co3285   2.082       .  S
O3269      C3275   1.274       .  A
O3270      C3273   1.274       .  A
O3271      C3272   1.271       .  A
O3271     Co3286   2.095   1_655  S
C3272      C3342   1.487       .  S
C3273      C3470   1.489       .  S
C3274      C3614   1.483       .  S
C3275      C3569   1.488       .  S
O3276      C3289   1.226       .  A
O3276     Co3284   1.940       .  S
O3277      C3290   1.225       .  A
O3278      C3291   1.224       .  A
O3279      C3292   1.226       .  A
O3279     Co3287   1.940       .  S
O3280      C3292   1.273       .  A
O3281      C3291   1.271       .  A
O3281     Co3284   2.092       .  S
O3282      C3289   1.275       .  A
O3282     Co3287   2.095       .  S
O3283      C3290   1.271       .  A
Co3284     O3288   2.117       .  S
Co3287     O3288   2.106       .  S
C3289      C3450   1.490       .  S
C3290      C3546   1.479       .  S
C3291      C3650   1.488       .  S
C3292      C3385   1.484       .  S
O3293      C3301   1.228       .  A
O3294      C3302   1.229       .  A
O3294     Co3314   1.937   1_556  S
O3295      C3303   1.232       .  A
O3295     Co3315   1.938   1_556  S
O3296      C3304   1.226       .  A
O3297      C3303   1.277       .  A
O3297     Co3314   2.084   1_556  S
O3298      C3304   1.275       .  A
O3299      C3302   1.278       .  A
O3300      C3301   1.275       .  A
O3300     Co3315   2.094   1_556  S
C3301      C3367   1.486       .  S
C3302      C3351   1.486       .  S
C3303      C3434   1.486       .  S
C3304      C3582   1.484       .  S
O3305      C3318   1.222       .  A
O3305     Co3313   1.940       .  S
O3306      C3319   1.223       .  A
O3307      C3320   1.220       .  A
O3308      C3321   1.225       .  A
O3308     Co3316   1.946       .  S
O3309      C3321   1.270       .  A
O3310      C3320   1.267       .  A
O3310     Co3313   2.095       .  S
O3311      C3318   1.267       .  A
O3311     Co3316   2.094       .  S
O3312      C3319   1.270       .  A
Co3314     O3317   2.115   1_554  S
Co3315     O3317   2.118   1_554  S
C3318      C3551   1.490       .  S
C3319      C3623   1.487       .  S
C3320      C3659   1.488       .  S
C3321      C3479   1.489       .  S
C3322      C3421   1.481       .  S
C3322      C3323   1.400       .  A
C3322      C3327   1.408       .  A
C3323      C3324   1.385       .  A
C3323      H3328   1.064       .  S
C3324      C3325   1.417       .  A
C3325      C3326   1.415       .  A
C3325      H3329   1.083       .  S
C3326      C3333   1.495       .  S
C3326      C3327   1.412       .  A
C3327      H3330   1.084       .  S
C3331      C3353   1.501       .  S
C3331      C3332   1.408       .  A
C3331      C3336   1.413       .  A
C3332      C3333   1.411       .  A
C3332      H3337   1.084       .  S
C3333      C3334   1.412       .  A
C3334      C3335   1.412       .  A
C3334      H3338   1.084       .  S
C3335      C3344   1.498       .  S
C3335      C3336   1.414       .  A
C3336      H3339   1.084       .  S
C3340      C3676   1.487       .  S
C3340      C3341   1.386       .  A
C3340      C3345   1.416       .  A
C3341      C3342   1.401       .  A
C3342      C3343   1.414       .  A
C3343      C3344   1.414       .  A
C3343      H3347   1.084       .  S
C3344      C3345   1.413       .  A
C3345      H3348   1.084       .  S
C3349      C3503   1.488       .  S
C3349      C3350   1.394       .  A
C3349      C3354   1.415       .  A
C3350      C3351   1.380       .  A
C3350      H3355   1.058       .  S
C3351      C3352   1.415       .  A
C3352      C3353   1.418       .  A
C3352      H3356   1.083       .  S
C3353      C3354   1.418       .  A
C3354      H3357   1.083       .  S
C3358      C3378   1.499       .  S
C3358      C3359   1.411       .  A
C3358      C3363   1.411       .  A
C3359      C3360   1.414       .  A
C3359      H3364   1.084       .  S
C3360      C3387   1.493       .  S
C3360      C3361   1.411       .  A
C3361      C3362   1.409       .  A
C3361      H3365   1.084       .  S
C3362      C3371   1.497       .  S
C3362      C3363   1.411       .  A
C3363      H3366   1.084       .  S
C3367      C3368   1.400       .  A
C3367      C3372   1.411       .  A
C3368      C3369   1.386       .  A
C3368      H3373   1.066   1_556  S
C3369      C3370   1.416       .  A
C3370      C3371   1.416       .  A
C3370      H3374   1.083       .  S
C3371      C3372   1.415       .  A
C3372      H3375   1.084       .  S
C3376      C3402   1.479       .  S
C3376      C3377   1.410       .  A
C3376      C3381   1.397       .  A
C3377      C3378   1.413       .  A
C3377      H3382   1.084       .  S
C3378      C3379   1.417       .  A
C3379      C3380   1.420       .  A
C3379      H3383   1.083       .  S
C3380      C3381   1.383       .  A
C3381      H3384   1.066       .  S
C3385      C3386   1.411       .  A
C3385      C3390   1.385       .  A
C3386      C3387   1.412       .  A
C3386      H3391   1.084       .  S
C3387      C3388   1.414       .  A
C3388      C3389   1.414       .  A
C3388      H3392   1.084       .  S
C3389      C3390   1.398       .  A
C3390      H3393   1.056       .  S
O3394      C3402   1.225       .  A
O3394     Co3414   1.936       .  S
O3395     Co3415   1.940       .  S
O3396     Co3416   1.937       .  S
O3397      C3405   1.226       .  A
O3397     Co3417   1.940       .  S
O3398      C3404   1.271       .  A
O3398     Co3415   2.091       .  S
O3399     Co3414   2.085       .  S
O3400      C3403   1.275       .  A
O3400     Co3417   2.095       .  S
O3401     Co3416   2.082       .  S
C3405      C3555   1.484       .  S
O3406     Co3414   1.942       .  S
O3407      C3420   1.223       .  A
O3407     Co3415   1.934       .  S
O3408      C3421   1.228       .  A
O3408     Co3416   1.937       .  S
O3409     Co3417   1.940       .  S
O3410      C3422   1.274   1_565  A
O3410     Co3415   2.094       .  S
O3411     Co3414   2.080       .  S
O3412      C3419   1.274       .  A
O3412     Co3417   2.091       .  S
O3413     Co3416   2.096       .  S
Co3415     O3418   2.116   1_565  S
C3420      C3625   1.487       .  S
C3423      C3436   1.496       .  S
C3423      C3424   1.409       .  A
C3423      C3428   1.411       .  A
C3424      C3425   1.411       .  A
C3424      H3429   1.084       .  S
C3425      C3452   1.498       .  S
C3425      C3426   1.413       .  A
C3426      C3427   1.415       .  A
C3426      H3430   1.084       .  S
C3427      C3443   1.497       .  S
C3427      C3428   1.410       .  A
C3428      H3431   1.084       .  S
C3432      C3433   1.397       .  A
C3432      C3437   1.413       .  A
C3433      C3434   1.384       .  A
C3433      H3438   1.061       .  S
C3434      C3435   1.413       .  A
C3435      C3436   1.416       .  A
C3435      H3439   1.083       .  S
C3436      C3437   1.416       .  A
C3437      H3440   1.083       .  S
C3441      C3442   1.414       .  A
C3441      C3446   1.398       .  A
C3442      C3443   1.414       .  A
C3442      H3447   1.084       .  S
C3443      C3444   1.415       .  A
C3444      C3445   1.415       .  A
C3444      H3448   1.083       .  S
C3445      C3446   1.385       .  A
C3446      H3449   1.060       .  S
C3450      C3451   1.419       .  A
C3450      C3455   1.386       .  A
C3451      C3452   1.417       .  A
C3451      H3456   1.083       .  S
C3452      C3453   1.413       .  A
C3453      C3454   1.410       .  A
C3453      H3457   1.084       .  S
C3454      C3506   1.480       .  S
C3454      C3455   1.398       .  A
C3455      H3458   1.067       .  S
C3459      C3481   1.495       .  S
C3459      C3460   1.415       .  A
C3459      C3464   1.412       .  A
C3460      C3461   1.411       .  A
C3460      H3465   1.084       .  S
C3461      C3472   1.501       .  S
C3461      C3462   1.411       .  A
C3462      C3463   1.411       .  A
C3462      H3466   1.084       .  S
C3463      C3488   1.496       .  S
C3463      C3464   1.411       .  A
C3464      H3467   1.084       .  S
C3468      C3469   1.399       .  A
C3468      C3473   1.412       .  A
C3469      C3470   1.385       .  A
C3470      C3471   1.418       .  A
C3471      C3472   1.417       .  A
C3471      H3475   1.083       .  S
C3472      C3473   1.416       .  A
C3473      H3476   1.084       .  S
C3477      C3522   1.487       .  S
C3477      C3478   1.403       .  A
C3477      C3482   1.412       .  A
C3478      C3479   1.388       .  A
C3478      H3483   1.066       .  S
C3479      C3480   1.417       .  A
C3480      C3481   1.414       .  A
C3480      H3484   1.083       .  S
C3481      C3482   1.412       .  A
C3482      H3485   1.084       .  S
C3486      C3487   1.410       .  A
C3486      C3491   1.398       .  A
C3487      C3488   1.413       .  A
C3487      H3492   1.084       .  S
C3488      C3489   1.416       .  A
C3489      C3490   1.418       .  A
C3489      H3493   1.083       .  S
C3490      C3491   1.383       .  A
O3495      C3503   1.223       .  A
O3495     Co3515   1.937       .  S
O3496     Co3516   1.941       .  S
O3497     Co3517   1.939       .  S
O3498      C3506   1.225       .  A
O3498     Co3518   1.937       .  S
O3499      C3505   1.273       .  A
O3499     Co3516   2.093       .  S
O3500     Co3515   2.081       .  S
O3501      C3504   1.275   1_556  A
O3501     Co3518   2.088       .  S
O3502     Co3517   2.096       .  S
O3507     Co3515   1.936       .  S
O3508      C3521   1.224       .  A
O3508     Co3516   1.939       .  S
O3509      C3522   1.222       .  A
O3509     Co3517   1.934       .  S
O3510     Co3518   1.943       .  S
O3511      C3523   1.273       .  A
O3511     Co3516   2.087       .  S
O3512     Co3515   2.094       .  S
O3513      C3520   1.272       .  A
O3513     Co3518   2.086       .  S
O3514     Co3517   2.095       .  S
Co3518     O3519   2.111       .  S
C3521      C3542   1.487       .  S
C3524      C3694   1.484       .  S
C3524      C3525   1.410       .  A
C3524      C3529   1.400       .  A
C3525      C3526   1.414       .  A
C3525      H3530   1.084       .  S
C3526      C3533   1.497       .  S
C3526      C3527   1.416       .  A
C3527      C3528   1.416       .  A
C3527      H3531   1.083       .  S
C3528      C3529   1.385       .  A
C3529      H3532   1.067       .  S
C3533      C3534   1.409       .  A
C3533      C3538   1.411       .  A
C3534      C3535   1.411       .  A
C3534      H3539   1.084       .  S
C3535      C3553   1.493       .  S
C3535      C3536   1.414       .  A
C3536      C3537   1.411       .  A
C3536      H3540   1.084       .  S
C3537      C3544   1.499       .  S
C3537      C3538   1.411       .  A
C3538      H3541   1.084       .  S
C3542      C3543   1.419       .  A
C3542      C3547   1.383       .  A
C3543      C3544   1.417       .  A
C3543      H3548   1.083       .  S
C3544      C3545   1.413       .  A
C3545      C3546   1.410       .  A
C3545      H3549   1.084       .  S
C3546      C3547   1.397       .  A
C3547      H3550   1.066       .  S
C3551      C3552   1.415       .  A
C3551      C3556   1.398       .  A
C3552      C3553   1.415       .  A
C3552      H3557   1.084       .  S
C3553      C3554   1.412       .  A
C3554      C3555   1.411       .  A
C3554      H3558   1.084       .  S
C3555      C3556   1.385       .  A
C3560      C3573   1.497       .  S
C3560      C3561   1.411       .  A
C3560      C3565   1.411       .  A
C3561      C3562   1.412       .  A
C3561      H3566   1.084       .  S
C3562      C3589   1.496       .  S
C3562      C3563   1.415       .  A
C3563      C3564   1.411       .  A
C3563      H3567   1.084       .  S
C3564      C3580   1.501       .  S
C3564      C3565   1.411       .  A
C3565      H3568   1.084       .  S
C3569      C3570   1.383       .  A
C3569      C3574   1.418       .  A
C3570      C3571   1.398       .  A
C3570      H3575   1.062       .  S
C3571      C3572   1.410       .  A
C3572      C3573   1.414       .  A
C3572      H3576   1.084       .  S
C3573      C3574   1.416       .  A
C3574      H3577   1.083       .  S
C3578      C3579   1.418       .  A
C3578      C3583   1.385       .  A
C3579      C3580   1.417       .  A
C3579      H3584   1.083       .  S
C3580      C3581   1.416       .  A
C3581      C3582   1.412       .  A
C3581      H3585   1.083       .  S
C3582      C3583   1.398       .  A
C3583      H3586   1.069   1_556  S
C3587      C3588   1.411       .  A
C3587      C3592   1.403       .  A
C3588      C3589   1.411       .  A
C3588      H3593   1.084       .  S
C3589      C3590   1.415       .  A
C3590      C3591   1.417       .  A
C3590      H3594   1.083       .  S
C3591      C3679   1.491       .  S
C3591      C3592   1.388       .  A
C3596      C3627   1.498       .  S
C3596      C3597   1.412       .  A
C3596      C3601   1.414       .  A
C3597      C3598   1.412       .  A
C3597      H3602   1.084       .  S
C3598      C3618   1.495       .  S
C3598      C3599   1.411       .  A
C3599      C3600   1.408       .  A
C3599      H3603   1.084       .  S
C3600      C3607   1.500       .  S
C3600      C3601   1.413       .  A
C3601      H3604   1.084       .  S
C3605      C3606   1.415       .  A
C3605      C3610   1.394       .  A
C3606      C3607   1.418       .  A
C3606      H3611   1.083       .  S
C3607      C3608   1.417       .  A
C3608      C3609   1.414       .  A
C3608      H3612   1.083       .  S
C3609      C3610   1.380       .  A
C3610      H3613   1.058       .  S
C3614      C3615   1.400       .  A
C3614      C3619   1.409       .  A
C3615      C3616   1.386       .  A
C3616      C3617   1.417       .  A
C3617      C3618   1.415       .  A
C3617      H3621   1.083       .  S
C3618      C3619   1.412       .  A
C3619      H3622   1.084       .  S
C3623      C3624   1.386       .  A
C3623      C3628   1.416       .  A
C3624      C3625   1.402       .  A
C3624      H3629   1.064       .  S
C3625      C3626   1.414       .  A
C3626      C3627   1.414       .  A
C3626      H3630   1.084       .  S
C3627      C3628   1.413       .  A
C3628      H3631   1.084       .  S
C3632      C3652   1.497       .  S
C3632      C3633   1.409       .  A
C3632      C3637   1.411       .  A
C3633      C3634   1.411       .  A
C3633      H3638   1.084       .  S
C3634      C3645   1.498       .  S
C3634      C3635   1.412       .  A
C3635      C3636   1.414       .  A
C3635      H3639   1.084       .  S
C3636      C3661   1.497       .  S
C3636      C3637   1.410       .  A
C3637      H3640   1.084       .  S
C3641      C3642   1.399       .  A
C3641      C3646   1.409       .  A
C3642      C3643   1.385       .  A
C3642      H3647   1.067   1_565  S
C3643      C3644   1.419       .  A
C3644      C3645   1.417       .  A
C3644      H3648   1.083       .  S
C3645      C3646   1.412       .  A
C3646      H3649   1.084       .  S
C3650      C3651   1.413       .  A
C3650      C3655   1.397       .  A
C3651      C3652   1.416       .  A
C3651      H3656   1.083       .  S
C3652      C3653   1.416       .  A
C3653      C3654   1.413       .  A
C3653      H3657   1.083       .  S
C3654      C3695   1.487       .  S
C3654      C3655   1.384       .  A
C3655      H3658   1.061       .  S
C3659      C3660   1.414       .  A
C3659      C3664   1.398       .  A
C3660      C3661   1.414       .  A
C3660      H3665   1.084       .  S
C3661      C3662   1.414       .  A
C3662      C3663   1.414       .  A
C3662      H3666   1.083       .  S
C3663      C3664   1.385       .  A
O3668      C3676   1.223       .  A
O3668     Co3688   1.945       .  S
O3669     Co3689   1.940       .  S
O3670     Co3690   1.939       .  S
O3671      C3679   1.225       .  A
O3671     Co3691   1.946       .  S
O3672      C3678   1.267       .  A
O3672     Co3689   2.094       .  S
O3673     Co3688   2.092       .  S
O3674      C3677   1.267   1_655  A
O3674     Co3691   2.093       .  S
O3675     Co3690   2.090       .  S
O3680     Co3688   1.937       .  S
O3681      C3694   1.228       .  A
O3681     Co3689   1.931       .  S
O3682      C3695   1.232       .  A
O3682     Co3690   1.938       .  S
O3683     Co3691   1.930       .  S
O3684      C3696   1.275       .  A
O3684     Co3689   2.095       .  S
O3685     Co3688   2.085       .  S
O3686      C3693   1.278       .  A
O3686     Co3691   2.086       .  S
O3687     Co3690   2.092       .  S
Co3689     O3692   2.120       .  S
