geometry optimzed in LAMMPS
_audit_creation_date              2020-11-30 
_audit_creation_method            'lammps2cif' 
_symmetry_space_group_name_H-M    'P1' 
_symmetry_Int_Tables_number       1 
_symmetry_cell_setting            triclinic 
loop_ 
_symmetry_equiv_pos_as_xyz 
  x,y,z 
_cell_length_a                    36.80030541 
_cell_length_b                    37.015220748413014 
_cell_length_c                    36.594095476754624 
_cell_angle_alpha                 90.19701391302387 
_cell_angle_beta                  89.32993882501265 
_cell_angle_gamma                 89.62614073782207 
loop_ 
_atom_site_label 
_atom_site_type_symbol 
_atom_site_fract_x 
_atom_site_fract_y 
_atom_site_fract_z 
_atom_site_charge 
O1          O  0.57078738  0.95580411  0.48787872    -0.80000
O2          O  0.42028759  0.98177400  0.52299593    -0.80000
O3          O  0.51689176  0.94380912  0.54687447    -0.80000
O4          O  0.50638584  0.93568921  0.44412924    -0.79900
O5          O  0.47499301  0.97909306  0.57240621    -0.80000
O6          O  0.54555760  0.97395207  0.42303076    -0.80000
O7          O  0.44256901  0.93817373  0.48738063    -0.80000
O8          O  0.58923968  0.96829924  0.54310715    -0.80000
C9          C  0.59533951  0.95323504  0.51233111     1.09700
C10         C  0.41865722  0.95018954  0.50982267     1.09600
C11         C  0.49632029  0.95161636  0.57386162     1.09800
C12         C  0.52836625  0.94472525  0.41915354     1.09600
O13         O  0.52271799  0.04370910  0.44649819    -0.80000
O14         O  0.49890324  0.04946274  0.54589000    -0.80000
O15         O  0.56980170  0.03186754  0.51195049    -0.80000
O16         O  0.42596704  0.00622772  0.45652810    -0.79900
O17         O  0.44193809  0.04924971  0.49531551    -0.80000
O18         O  0.59407677  0.01911719  0.45863288    -0.80000
O19         O  0.48752833  0.00747757  0.41463710    -0.79900
O20         O  0.53461573  0.01306300  0.57391176    -0.80000
Co21       Co  0.54546587  0.00207852  0.47011604     1.51500
Co22       Co  0.46139256  0.01472164  0.53198697     1.51700
Co23       Co  0.54218128  0.98568962  0.52651978     1.51600
Co24       Co  0.46781182  0.97221817  0.45332080     1.51500
O25         O  0.49713604  0.99332400  0.49509417    -1.41900
C26         C  0.50721856  0.03592843  0.41674460     1.09700
C27         C  0.51363544  0.04020151  0.57532722     1.09800
C28         C  0.59698511  0.03406156  0.48973950     1.09700
C29         C  0.42150442  0.03746024  0.47018493     1.09700
O30         O  0.94972313  0.55868696  0.51475870    -0.80000
O31         O  0.98470189  0.41499917  0.46741847    -0.80000
O32         O  0.93894467  0.51008418  0.44942981    -0.80000
O33         O  0.93482178  0.48843556  0.55629954    -0.79900
O34         O  0.97683946  0.47244936  0.42106748    -0.80000
O35         O  0.97148165  0.52905001  0.57703144    -0.80000
O36         O  0.94077285  0.42948754  0.50686219    -0.80000
O37         O  0.95922931  0.58306945  0.46122256    -0.80000
C38         C  0.94556699  0.58567145  0.49332044     1.09700
C39         C  0.95515352  0.40765057  0.48389653     1.09600
C40         C  0.94821104  0.49240867  0.42089997     1.09800
C41         C  0.94393688  0.50919258  0.58206625     1.09600
O42         O  0.04223963  0.51269876  0.54836819    -0.80000
O43         O  0.04611599  0.49949267  0.44840392    -0.80000
O44         O  0.02520657  0.56330492  0.48760983    -0.80000
O45         O  0.01189153  0.41713482  0.53242397    -0.79900
O46         O  0.05190570  0.44032367  0.49371662    -0.80000
O47         O  0.01358647  0.58221347  0.54361442    -0.80000
O48         O  0.00950517  0.47354931  0.57945431    -0.79900
O49         O  0.00719987  0.53377230  0.42265867    -0.80000
Co50       Co  0.99790037  0.53468477  0.52872876     1.51500
Co51       Co  0.01428410  0.45881535  0.45995928     1.51700
Co52       Co  0.97983480  0.53546491  0.47173420     1.51600
Co53       Co  0.97421921  0.45470480  0.54095479     1.51500
O54         O  0.99045089  0.48894026  0.49999915    -1.41900
C55         C  0.03671454  0.49487932  0.57738393     1.09700
C56         C  0.03613151  0.51515317  0.41983417     1.09800
C57         C  0.02946256  0.58687828  0.51302055     1.09700
C58         C  0.04322361  0.41728538  0.51774990     1.09700
O59         O  0.45088659  0.50514428  0.05310986    -0.80000
O60         O  0.54853864  0.49305066  0.05405632    -0.80000
O61         O  0.48961227  0.43941876  0.04445134    -0.80000
O62         O  0.53190097  0.58382592  0.00572405    -0.79900
O63         O  0.54450545  0.41821993  0.03684845    -0.80000
O64         O  0.49390675  0.56635160  0.04942773    -0.80000
O65         O  0.57862198  0.52813864  0.01547602    -0.80000
O66         O  0.42569754  0.46562755  0.01940573    -0.80000
C67         C  0.42261398  0.48821655  0.04532965     1.09700
C68         C  0.57651686  0.51142674  0.04603516     1.09600
C69         C  0.51245769  0.41366236  0.04930886     1.09800
C70         C  0.51764854  0.58802719  0.03706232     1.09600
O71         O  0.46772673  0.57900169  0.97826538    -0.80000
O72         O  0.51838576  0.43177357  0.96909360    -0.80000
O73         O  0.45694582  0.47801845  0.94847059    -0.80000
O74         O  0.55792355  0.49940424  0.94422383    -0.79900
O75         O  0.57884380  0.46598665  0.98784944    -0.80000
O76         O  0.42470914  0.51923342  0.97850102    -0.80000
O77         O  0.50823491  0.55844432  0.93770280    -0.79900
O78         O  0.46449122  0.40984594  0.98132489    -0.80000
Co79       Co  0.46140156  0.54050759  0.01494255     1.51500
Co80       Co  0.53042907  0.46362382  0.01356865     1.51700
Co81       Co  0.47546613  0.45967742  0.99441424     1.51600
Co82       Co  0.54171967  0.53988690  0.97604499     1.51500
O83         O  0.50220190  0.50783927  0.99801297    -1.41900
C84         C  0.48333728  0.58077440  0.94731010     1.09700
C85         C  0.49616481  0.40516303  0.96772223     1.09800
C86         C  0.42760471  0.49549613  0.95284909     1.09700
C87         C  0.58406598  0.48165096  0.95753345     1.09700
C88         C  0.57262913  0.93856931  0.77602571     0.03300
C89         C  0.55509028  0.94408560  0.74215835    -0.12800
C90         C  0.55402053  0.91651903  0.71546071     0.00800
C91         C  0.57204048  0.88380485  0.72225938    -0.11400
C92         C  0.59267459  0.87914683  0.75364870     0.03300
C93         C  0.59146337  0.90555442  0.78110875    -0.10800
H94         H  0.54320208  0.97003899  0.73572916     0.08900
H95         H  0.57143459  0.86213339  0.70236348     0.06400
H96         H  0.60593736  0.90018443  0.80605721     0.06300
C97         C  0.73093123  0.71706329  0.78870688     0.80400
N98         N  0.75753204  0.71733889  0.76236349    -0.77900
C99         C  0.75635685  0.74158044  0.73446314     0.82900
N100        N  0.72818471  0.76538790  0.73322528    -0.77800
C101        C  0.70147120  0.76556116  0.75916184     0.82900
N102        N  0.70314209  0.74132842  0.78681775    -0.79600
C103        C  0.90166779  0.71763629  0.56936661     0.03300
C104        C  0.92207639  0.74956645  0.56479470    -0.12800
C105        C  0.91524722  0.78027234  0.58686721     0.00800
C106        C  0.88922454  0.77813845  0.61520500    -0.11400
C107        C  0.86891402  0.74657153  0.62085058     0.03300
C108        C  0.87464822  0.71704280  0.59717264    -0.10800
H109        H  0.94318196  0.75084114  0.54402912     0.08900
H110        H  0.88483407  0.80126529  0.63298042     0.06400
H111        H  0.85740664  0.69365229  0.60021073     0.06300
C112        C  0.77493946  0.57999933  0.95127501     0.03300
C113        C  0.74896887  0.55207245  0.95067168    -0.12800
C114        C  0.71658557  0.55553145  0.93032285     0.00800
C115        C  0.71182393  0.58712720  0.90934180    -0.11400
C116        C  0.73887730  0.61348460  0.90712542     0.03300
C117        C  0.76910303  0.61074189  0.92967828    -0.10800
H118        H  0.75464067  0.52737586  0.96526005     0.08900
H119        H  0.68730749  0.59152174  0.89406808     0.06400
H120        H  0.78869632  0.63244922  0.92945219     0.06300
C121        C  0.27757711  0.20752891  0.74544934     0.80400
N122        N  0.27934276  0.23472760  0.77033076    -0.77900
C123        C  0.25431096  0.26181486  0.77076458     0.82900
N124        N  0.22721136  0.26137797  0.74594393    -0.77800
C125        C  0.22494657  0.23431039  0.72094590     0.82900
N126        N  0.25029738  0.20757037  0.72086948    -0.79600
C127        C  0.29616279  0.42008797  0.91408660     0.03300
C128        C  0.26443926  0.42714334  0.93487657    -0.12800
C129        C  0.23150708  0.40973520  0.92698916     0.00800
C130        C  0.23110150  0.38295822  0.89991862    -0.11400
C131        C  0.26266796  0.37454344  0.87986563     0.03300
C132        C  0.29473111  0.39367646  0.88634426    -0.10800
H133        H  0.26496167  0.44688808  0.95676223     0.08900
H134        H  0.20591119  0.36943033  0.89353412     0.06400
H135        H  0.31806155  0.38859071  0.86876106     0.06300
C136        C  0.41939646  0.04750352  0.77602033     0.03300
C137        C  0.44147022  0.04173793  0.74459181    -0.12800
C138        C  0.43685648  0.06334285  0.71312462     0.00800
C139        C  0.41035323  0.09092966  0.71412729    -0.11400
C140        C  0.38759895  0.09579317  0.74450010     0.03300
C141        C  0.39173032  0.07369029  0.77489660    -0.10800
H142        H  0.46221019  0.02093837  0.74484714     0.08900
H143        H  0.40744316  0.10919238  0.69126109     0.06400
H144        H  0.37362582  0.07747764  0.79819669     0.06300
C145        C  0.06956411  0.21613905  0.57052680     0.03300
C146        C  0.09366892  0.21434601  0.60011519    -0.12800
C147        C  0.11801990  0.24220501  0.60717489     0.00800
C148        C  0.11711114  0.27322494  0.58581041    -0.11400
C149        C  0.09038210  0.27792334  0.55944696     0.03300
C150        C  0.06716707  0.24890481  0.55078046    -0.10800
H151        H  0.09357515  0.19110683  0.61801260     0.08900
H152        H  0.13573637  0.29509726  0.59139064     0.06400
H153        H  0.04714416  0.25215900  0.52957353     0.06300
O154        O  0.46965576  0.01041298  0.93967253    -0.80000
O155        O  0.50161272  0.95453851  0.08211234    -0.80000
O156        O  0.45966800  0.94575913  0.98645706    -0.80000
O157        O  0.45512297  0.04539831  0.01293652    -0.79900
O158        O  0.49628782  0.91336090  0.02082948    -0.80000
O159        O  0.49096494  0.07189653  0.97515463    -0.80000
O160        O  0.45794742  0.99346080  0.06791985    -0.80000
O161        O  0.48168388  0.95759673  0.91460356    -0.80000
C162        C  0.46580573  0.98808174  0.91292658     1.09700
C163        C  0.47014961  0.96777553  0.08730124     1.09600
C164        C  0.46718811  0.91609773  0.00190089     1.09800
C165        C  0.46430773  0.07412528  0.99719197     1.09600
O166        O  0.56101982  0.04243375  0.98896377    -0.80000
O167        O  0.56801879  0.94203306  0.99773990    -0.80000
O168        O  0.54646431  0.98662223  0.93292416    -0.80000
O169        O  0.52732814  0.01883055  0.08636543    -0.79900
O170        O  0.56979461  0.98400204  0.06093586    -0.80000
O171        O  0.53224376  0.04253229  0.91860679    -0.80000
O172        O  0.52837837  0.06946715  0.03200241    -0.79900
O173        O  0.52847882  0.92086603  0.96077770    -0.80000
Co174      Co  0.51729708  0.02421290  0.96550245     1.51500
Co175      Co  0.53360055  0.95098090  0.03841279     1.51700
Co176      Co  0.50119359  0.96851972  0.96177246     1.51600
Co177      Co  0.49236919  0.02956025  0.04740306     1.51500
O178        O  0.51131741  0.99275386  0.01026550    -1.41900
C179        C  0.55495333  0.06984401  0.00891067     1.09700
C180        C  0.55770187  0.91625517  0.97809873     1.09800
C181        C  0.54741828  0.01283977  0.90988525     1.09700
C182        C  0.55951112  0.00676645  0.08504497     1.09700
C183        C  0.26332792  0.75386186  0.78211385     0.80400
N184        N  0.23890017  0.72653286  0.78078953    -0.77900
C185        C  0.21314305  0.72559325  0.75444408     0.82900
N186        N  0.21212463  0.75250385  0.72922369    -0.77800
C187        C  0.23636322  0.78002636  0.73020212     0.82900
N188        N  0.26183511  0.78031991  0.75667135    -0.79600
C189        C  0.42747236  0.72015187  0.91398968     0.03300
C190        C  0.43674788  0.75022315  0.93622963    -0.12800
C191        C  0.41631935  0.78300749  0.93460772     0.00800
C192        C  0.38621908  0.78430448  0.91102647    -0.11400
C193        C  0.37803750  0.75528427  0.88817880     0.03300
C194        C  0.39894055  0.72395870  0.88928392    -0.10800
H195        H  0.45949095  0.74799509  0.95453258     0.08900
H196        H  0.36875037  0.80792951  0.91023471     0.06400
H197        H  0.39240282  0.70203172  0.87081592     0.06300
C198        C  0.21573117  0.93530881  0.57913293     0.03300
C199        C  0.21370680  0.91175897  0.60916154    -0.12800
C200        C  0.24272947  0.88911095  0.61785339     0.00800
C201        C  0.27484006  0.89069727  0.59727140    -0.11400
C202        C  0.27913401  0.91580923  0.56884634     0.03300
C203        C  0.24906876  0.93808588  0.55967722    -0.10800
H204        H  0.18922089  0.91068334  0.62584878     0.08900
H205        H  0.29663494  0.87201026  0.60360480     0.06400
H206        H  0.25141423  0.95738254  0.53766201     0.06300
C207        C  0.06134686  0.57433374  0.77851347     0.03300
C208        C  0.05656288  0.55396885  0.74611932    -0.12800
C209        C  0.07836738  0.56059268  0.71452614     0.00800
C210        C  0.10551830  0.58724762  0.71677446    -0.11400
C211        C  0.10871352  0.60912273  0.74778036     0.03300
C212        C  0.08639796  0.60280904  0.77810647    -0.10800
H213        H  0.03604551  0.53317628  0.74568344     0.08900
H214        H  0.12470318  0.59112551  0.69454810     0.06400
H215        H  0.08876913  0.62032588  0.80174234     0.06300
C216        C  0.75080802  0.28935680  0.22076304     0.80400
N217        N  0.72378606  0.26469461  0.22380295    -0.77900
C218        C  0.72660544  0.23662010  0.24743505     0.82900
N219        N  0.75688283  0.23339022  0.26799143    -0.77800
C220        C  0.78413636  0.25775789  0.26527722     0.82900
N221        N  0.78088579  0.28562806  0.24159121    -0.79600
C222        C  0.92214867  0.26991170  0.42513040     0.03300
C223        C  0.94350712  0.23850622  0.42986457    -0.12800
C224        C  0.94655345  0.21206434  0.40220021     0.00800
C225        C  0.92515544  0.21599287  0.37081050    -0.11400
C226        C  0.90140248  0.24548966  0.36718085     0.03300
C227        C  0.90105940  0.27285486  0.39364588    -0.10800
H228        H  0.95798656  0.23485653  0.45514990     0.08900
H229        H  0.92660497  0.19609463  0.34908783     0.06400
H230        H  0.88449317  0.29665187  0.38924950     0.06300
C231        C  0.77430218  0.43415240  0.06132009     0.03300
C232        C  0.77282392  0.40490494  0.08567209    -0.12800
C233        C  0.74594389  0.40304092  0.11282564     0.00800
C234        C  0.71825140  0.42891597  0.11355277    -0.11400
C235        C  0.71504489  0.45483010  0.08569043     0.03300
C236        C  0.74410145  0.45800505  0.06002456    -0.10800
H237        H  0.79352758  0.38399847  0.08437089     0.08900
H238        H  0.69861077  0.42813554  0.13577685     0.06400
H239        H  0.74342694  0.47858568  0.03920222     0.06300
C240        C  0.57568565  0.08376623  0.28156741     0.03300
C241        C  0.59833034  0.11440034  0.28198366    -0.12800
C242        C  0.62145518  0.12213406  0.25257161     0.00800
C243        C  0.62122341  0.10030482  0.22158063    -0.11400
C244        C  0.59719093  0.07136678  0.21877033     0.03300
C245        C  0.57513387  0.06233375  0.24933394    -0.10800
H246        H  0.59819975  0.13257394  0.30523073     0.08900
H247        H  0.63967629  0.10634815  0.19913504     0.06400
H248        H  0.55781273  0.03889998  0.24780934     0.06300
O249        O  0.93920422  0.54635870  0.98928005    -0.80000
O250        O  0.08674674  0.52083632  0.02667441    -0.80000
O251        O  0.99107062  0.55508092  0.04950769    -0.80000
O252        O  0.00333802  0.56169771  0.94627135    -0.79900
O253        O  0.03072376  0.51942944  0.07610146    -0.80000
O254        O  0.96569388  0.52599805  0.92160241    -0.80000
O255        O  0.06507732  0.56273112  0.98933824    -0.80000
O256        O  0.91914861  0.53149254  0.04379514    -0.80000
C257        C  0.91394084  0.54788541  0.01379172     1.09700
C258        C  0.08808377  0.55211598  0.01271474     1.09600
C259        C  0.00903008  0.54657058  0.07754971     1.09800
C260        C  0.98693039  0.55235974  0.91795396     1.09600
O261        O  0.98521862  0.45680200  0.94750043    -0.80000
O262        O  0.01026231  0.44914588  0.04684816    -0.80000
O263        O  0.93828018  0.46869748  0.01064496    -0.80000
O264        O  0.08533010  0.49552162  0.95990078    -0.79900
O265        O  0.06953614  0.45187216  0.99758188    -0.80000
O266        O  0.91470032  0.48430071  0.95846381    -0.80000
O267        O  0.02475652  0.49029408  0.91721511    -0.79900
O268        O  0.97187561  0.48467089  0.07396792    -0.80000
Co269      Co  0.96352335  0.49968098  0.97033507     1.51500
Co270      Co  0.04694787  0.48555143  0.03436452     1.51700
Co271      Co  0.96618656  0.51380740  0.02741052     1.51600
Co272      Co  0.04253371  0.52721209  0.95551392     1.51500
O273        O  0.01196090  0.50591312  0.99654483    -1.41900
C274        C  0.00263864  0.46354617  0.91831479     1.09700
C275        C  0.99303054  0.45758671  0.07562920     1.09800
C276        C  0.91089298  0.46877153  0.98910695     1.09700
C277        C  0.09152997  0.46512802  0.97425649     1.09700
C278        C  0.21767956  0.06263704  0.40764166     0.03300
C279        C  0.25242551  0.05571598  0.42280795    -0.12800
C280        C  0.28160980  0.07965092  0.41731338     0.00800
C281        C  0.27684848  0.10970821  0.39491473    -0.11400
C282        C  0.24360989  0.11660641  0.37807377     0.03300
C283        C  0.21388071  0.09391240  0.38554665    -0.10800
H284        H  0.25783612  0.03112853  0.43759816     0.08900
H285        H  0.29963216  0.12750150  0.38978311     0.06400
H286        H  0.18816655  0.10052064  0.37321043     0.06300
C287        C  0.24292332  0.22952430  0.26757618     0.80400
N288        N  0.21891732  0.25764695  0.26875511    -0.77900
C289        C  0.21985683  0.28410273  0.24284855     0.82900
N290        N  0.24548324  0.28207194  0.21551137    -0.77800
C291        C  0.26958040  0.25391212  0.21386864     0.82900
N292        N  0.26789311  0.22811835  0.24004367    -0.79600
C293        C  0.05903042  0.42812422  0.21684157     0.03300
C294        C  0.08626189  0.40121892  0.21844435    -0.12800
C295        C  0.10933635  0.39819467  0.24836322     0.00800
C296        C  0.10409337  0.42163014  0.27820745    -0.11400
C297        C  0.07482240  0.44677409  0.27967251     0.03300
C298        C  0.05280671  0.45004869  0.24817807    -0.10800
H299        H  0.08989266  0.38232001  0.19602880     0.08900
H300        H  0.12334685  0.42005031  0.30024048     0.06400
H301        H  0.03097362  0.46953571  0.24782174     0.06300
C302        C  0.44556660  0.27561336  0.08391479     0.03300
C303        C  0.45296117  0.24404782  0.06308286    -0.12800
C304        C  0.43027444  0.21339056  0.06604521     0.00800
C305        C  0.39903283  0.21566335  0.08876774    -0.11400
C306        C  0.39157503  0.24637107  0.11035853     0.03300
C307        C  0.41602537  0.27521036  0.10887003    -0.10800
H308        H  0.47602899  0.24337445  0.04454206     0.08900
H309        H  0.38019675  0.19332289  0.08944695     0.06400
H310        H  0.41170237  0.29792102  0.12714116     0.06300
C311        C  0.77991152  0.27304398  0.74925084     0.80400
N312        N  0.75391158  0.27186221  0.77603392    -0.77900
C313        C  0.72843832  0.24533583  0.77669510     0.82900
N314        N  0.72925797  0.21966769  0.74992134    -0.77800
C315        C  0.75508900  0.22014991  0.72295132     0.82900
N316        N  0.78030055  0.24694714  0.72292882    -0.79600
C317        C  0.90951274  0.44552885  0.72150585     0.03300
C318        C  0.92878784  0.45242960  0.75417549    -0.12800
C319        C  0.92930396  0.42730141  0.78321576     0.00800
C320        C  0.90749249  0.39628261  0.78038933    -0.11400
C321        C  0.88566578  0.39016468  0.74987353     0.03300
C322        C  0.88842436  0.41371921  0.71996201    -0.10800
H323        H  0.94308462  0.47758268  0.75741231     0.08900
H324        H  0.90747307  0.37632283  0.80192016     0.06400
H325        H  0.87401764  0.40662325  0.69551801     0.06300
C326        C  0.58796851  0.20820402  0.94207398     0.03300
C327        C  0.61506186  0.21062927  0.91442998    -0.12800
C328        C  0.61711554  0.24045520  0.89117062     0.00800
C329        C  0.59308586  0.26941255  0.89652474    -0.11400
C330        C  0.56799288  0.26998890  0.92599987     0.03300
C331        C  0.56466449  0.23852172  0.94772275    -0.10800
H332        H  0.63505434  0.18935656  0.91065966     0.08900
H333        H  0.59437740  0.29173628  0.87754161     0.06400
H334        H  0.54395292  0.23786595  0.96882186     0.06300
C335        C  0.73159351  0.07619198  0.55931596     0.03300
C336        C  0.76263621  0.05356098  0.55658157    -0.12800
C337        C  0.79262207  0.05811585  0.58001832     0.00800
C338        C  0.78978036  0.08428246  0.60803258    -0.11400
C339        C  0.76041020  0.10850468  0.60998170     0.03300
C340        C  0.73196422  0.10471163  0.58510156    -0.10800
H341        H  0.76338026  0.03217786  0.53650851     0.08900
H342        H  0.81034184  0.08592031  0.62882221     0.06400
H343        H  0.70980953  0.12406424  0.58630905     0.06300
C344        C  0.73723490  0.75767840  0.21611942     0.80400
N345        N  0.76327615  0.73135918  0.21585817    -0.77900
C346        C  0.78766765  0.72873234  0.24335018     0.82900
N347        N  0.78581305  0.75287094  0.27130052    -0.77800
C348        C  0.76003685  0.77924816  0.27222398     0.82900
N349        N  0.73575729  0.78149079  0.24456529    -0.79600
C350        C  0.73194609  0.91436376  0.44303951     0.03300
C351        C  0.76137522  0.93886265  0.44386880    -0.12800
C352        C  0.79008870  0.93667619  0.41778907     0.00800
C353        C  0.78747313  0.91076969  0.38964724    -0.11400
C354        C  0.76034315  0.88453292  0.38995175     0.03300
C355        C  0.73349773  0.88586729  0.41727280    -0.10800
H356        H  0.76179185  0.95961401  0.46445672     0.08900
H357        H  0.80680188  0.91064610  0.36714439     0.06400
H358        H  0.71335050  0.86471221  0.41778075     0.06300
C359        C  0.94326880  0.57844463  0.21962689     0.03300
C360        C  0.91930025  0.60817111  0.22116001    -0.12800
C361        C  0.89353384  0.61196447  0.24908486     0.00800
C362        C  0.89353921  0.58723208  0.27785613    -0.11400
C363        C  0.92095444  0.56059922  0.28087657     0.03300
C364        C  0.94501744  0.55529360  0.25050257    -0.10800
H365        H  0.91974652  0.62817132  0.19961417     0.08900
H366        H  0.87201270  0.58915803  0.29816642     0.06400
H367        H  0.96456702  0.53337568  0.25074708     0.06300
C368        C  0.59392460  0.78470518  0.05243473     0.03300
C369        C  0.57609354  0.75113018  0.04867002    -0.12800
C370        C  0.58101980  0.72316274  0.07423006     0.00800
C371        C  0.60532642  0.72842534  0.10287917    -0.11400
C372        C  0.62539220  0.76023217  0.10571691     0.03300
C373        C  0.61870210  0.78872105  0.08142567    -0.10800
H374        H  0.55923383  0.74601347  0.02525580     0.08900
H375        H  0.60931401  0.70738347  0.12296998     0.06400
H376        H  0.63335497  0.81368416  0.08506641     0.06300
C377        C  0.25852839  0.72280257  0.30620675     0.80400
N378        N  0.25459489  0.69902664  0.27818295    -0.77900
C379        C  0.27955030  0.69728445  0.25065281     0.82900
N380        N  0.30840656  0.71989118  0.25112914    -0.77800
C381        C  0.31269525  0.74392156  0.27881250     0.82900
N382        N  0.28755336  0.74522126  0.30618635    -0.79600
C383        C  0.47140969  0.89167872  0.28530032     0.03300
C384        C  0.44522284  0.86464295  0.29125624    -0.12800
C385        C  0.42142489  0.85435222  0.26365623     0.00800
C386        C  0.42141937  0.87308903  0.23059104    -0.11400
C387        C  0.44657399  0.90054678  0.22379222     0.03300
C388        C  0.47260684  0.90846929  0.25063091    -0.10800
H389        H  0.44282267  0.85139358  0.31745221     0.08900
H390        H  0.40126752  0.86646550  0.21032470     0.06400
H391        H  0.49392384  0.92735588  0.24404517     0.06300
C392        C  0.08769098  0.77341189  0.42441390     0.03300
C393        C  0.07545884  0.74599564  0.44837773    -0.12800
C394        C  0.09646100  0.71429636  0.45350998     0.00800
C395        C  0.13047819  0.71150961  0.43570340    -0.11400
C396        C  0.14162922  0.73748079  0.41060856     0.03300
C397        C  0.12023274  0.76797288  0.40486070    -0.10800
H398        H  0.04969443  0.74912950  0.46251312     0.08900
H399        H  0.14792661  0.68826708  0.44001214     0.06400
H400        H  0.12890947  0.78734799  0.38445651     0.06300
C401        C  0.28495543  0.55765551  0.08431988     0.03300
C402        C  0.28598005  0.57760124  0.11696709    -0.12800
C403        C  0.25941722  0.60347643  0.12564769     0.00800
C404        C  0.22967729  0.60743567  0.10250228    -0.11400
C405        C  0.22510531  0.58450704  0.07214300     0.03300
C406        C  0.25362458  0.56012614  0.06247639    -0.10800
H407        H  0.30871875  0.57388969  0.13515505     0.08900
H408        H  0.20968128  0.62831856  0.10829938     0.06400
H409        H  0.25158478  0.54327226  0.03839692     0.06300
O410        O  0.96956541  0.91197554  0.50185391    -0.80000
O411        O  0.01765183  0.05749562  0.52586672    -0.80000
O412        O  0.05255259  0.99110949  0.54511989    -0.80000
O413        O  0.95618598  0.01018607  0.53982301    -0.79900
O414        O  0.08109432  0.02620357  0.50819102    -0.80000
O415        O  0.92627372  0.97154850  0.50532256    -0.80000
O416        O  0.96476124  0.08126108  0.51345166    -0.80000
O417        O  0.00564705  0.93188389  0.54535955    -0.80000
C418        C  0.98138545  0.91026676  0.53417298     1.09700
C419        C  0.99589517  0.08464084  0.52774968     1.09600
C420        C  0.08167276  0.00670497  0.53657131     1.09800
C421        C  0.92782501  0.99201397  0.53366534     1.09600
O422        O  0.95535406  0.99221528  0.43290321    -0.80000
O423        O  0.05689283  0.00656016  0.43693906    -0.80000
O424        O  0.03544263  0.91109148  0.47667891    -0.80000
O425        O  0.99400556  0.05726854  0.44882988    -0.79900
O426        O  0.04850518  0.07775588  0.46099904    -0.80000
O427        O  0.99934996  0.93094436  0.43281396    -0.80000
O428        O  0.92925425  0.02925885  0.46987915    -0.79900
O429        O  0.08275913  0.96749414  0.47417447    -0.80000
Co430      Co  0.96479678  0.95372683  0.46815228     1.51500
Co431      Co  0.03428263  0.03084773  0.47932007     1.51700
Co432      Co  0.04204859  0.95242134  0.51019827     1.51600
Co433      Co  0.97732484  0.03266210  0.49633613     1.51500
O434        O  0.00458997  0.98534648  0.48817084    -1.41900
C435        C  0.92704063  0.00923214  0.44192216     1.09700
C436        C  0.08433324  0.98780410  0.44573244     1.09800
C437        C  0.02300378  0.90890598  0.44460988     1.09700
C438        C  0.01821888  0.08184165  0.44499739     1.09700
C439        C  0.08945468  0.84036926  0.41735447    -0.21100
C440        C  0.06853247  0.80877275  0.42062406    -0.09200
C441        C  0.03034411  0.81214667  0.42166025     0.29700
C442        C  0.01408522  0.84650680  0.42341545    -0.21100
C443        C  0.03562602  0.87767566  0.42350459    -0.09200
C444        C  0.07318908  0.87433625  0.41815392     0.29700
F445        F  0.09464060  0.90404160  0.41879374    -0.19700
H446        H  0.11885205  0.83912986  0.41684034     0.18100
H447        H  0.98505526  0.84864785  0.42831434     0.18100
F448        F  0.00882164  0.78253182  0.42253259    -0.19700
C449        C  0.23972134  0.65929406  0.21131328    -0.21100
C450        C  0.27450319  0.67230932  0.21952678    -0.09200
C451        C  0.30411375  0.66196527  0.19713519     0.29700
C452        C  0.29875898  0.64005589  0.16666908    -0.21100
C453        C  0.26399061  0.62719781  0.15812859    -0.09200
C454        C  0.23442059  0.63687929  0.18101835     0.29700
F455        F  0.20055326  0.62413265  0.17473410    -0.19700
H456        H  0.21645079  0.66671668  0.22818208     0.18100
H457        H  0.32203696  0.63340789  0.14950217     0.18100
F458        F  0.33844585  0.67253273  0.20484494    -0.19700
C459        C  0.20279555  0.69925541  0.33707858    -0.21100
C460        C  0.23054160  0.72518518  0.33550868    -0.09200
C461        C  0.23010590  0.75376429  0.36118300     0.29700
C462        C  0.20178406  0.75681878  0.38668673    -0.21100
C463        C  0.17382476  0.73138502  0.38734508    -0.09200
C464        C  0.17470417  0.70226882  0.36277541     0.29700
F465        F  0.14726760  0.67792961  0.36227903    -0.19700
H466        H  0.20228336  0.67695745  0.31786653     0.18100
H467        H  0.20113020  0.77957034  0.40540090     0.18100
F468        F  0.25607269  0.77959545  0.36100016    -0.19700
C469        C  0.37289438  0.82407958  0.30022256    -0.21100
C470        C  0.39584811  0.82434846  0.26942107    -0.09200
C471        C  0.39365849  0.79627260  0.24366863     0.29700
C472        C  0.36742778  0.76953547  0.24765686    -0.21100
C473        C  0.34294600  0.77016146  0.27747452    -0.09200
C474        C  0.34673309  0.79722824  0.30441587     0.29700
F475        F  0.32479657  0.79850148  0.33443063    -0.19700
H476        H  0.37450884  0.84533692  0.32054987     0.18100
H477        H  0.36589392  0.74876032  0.22683901     0.18100
F478        F  0.41688841  0.79476185  0.21459047    -0.19700
C479        C  0.85846422  0.01132072  0.44208558    -0.21100
C480        C  0.89124555  0.99582242  0.42932611    -0.09200
C481        C  0.88971032  0.96295365  0.40995306     0.29700
C482        C  0.85705426  0.94460214  0.40669477    -0.21100
C483        C  0.82404669  0.95912177  0.42031313    -0.09200
C484        C  0.82510789  0.99369783  0.43695877     0.29700
F485        F  0.79429537  0.01075706  0.44836313    -0.19700
H486        H  0.85873578  0.03665668  0.45697312     0.18100
H487        H  0.85842623  0.91792004  0.39463847     0.18100
F488        F  0.92022257  0.94674605  0.39633191    -0.19700
C489        C  0.68155961  0.73423257  0.13232467    -0.21100
C490        C  0.65522128  0.76181028  0.13254149    -0.09200
C491        C  0.65700655  0.78913539  0.15912689     0.29700
C492        C  0.68404216  0.78798396  0.18581824    -0.21100
C493        C  0.70997761  0.75973934  0.18631237    -0.09200
C494        C  0.70871105  0.73315331  0.15862027     0.29700
F495        F  0.73309557  0.70552213  0.15708936    -0.19700
H496        H  0.68085013  0.71311528  0.11176539     0.18100
H497        H  0.68425156  0.80899791  0.20646392     0.18100
F498        F  0.63177547  0.81603249  0.16022607    -0.19700
C499        C  0.83420504  0.69209072  0.27643399    -0.21100
C500        C  0.81520705  0.69912788  0.24400766    -0.09200
C501        C  0.82266857  0.67737114  0.21308246     0.29700
C502        C  0.84792030  0.64902999  0.21504246    -0.21100
C503        C  0.86637433  0.64178093  0.24766181    -0.09200
C504        C  0.85946528  0.66382987  0.27830825     0.29700
F505        F  0.87784474  0.65871850  0.30983349    -0.19700
H506        H  0.82943857  0.70839135  0.30066696     0.18100
H507        H  0.85294284  0.63251901  0.19098423     0.18100
F508        F  0.80607261  0.68358766  0.18076968    -0.19700
C509        C  0.79124270  0.81228173  0.32229703    -0.21100
C510        C  0.75919271  0.80543321  0.30299944    -0.09200
C511        C  0.72701332  0.82358134  0.31368305     0.29700
C512        C  0.72735747  0.84865993  0.34245699    -0.21100
C513        C  0.75971970  0.85625540  0.36096919    -0.09200
C514        C  0.79161715  0.83738616  0.35086444     0.29700
F515        F  0.82315199  0.84287436  0.36888838    -0.19700
H516        H  0.81635397  0.79850950  0.31494702     0.18100
H517        H  0.70241233  0.86271675  0.34982444     0.18100
F518        F  0.69512922  0.81675886  0.29678792    -0.19700
C519        C  0.82768812  0.00234644  0.55810359    -0.21100
C520        C  0.82744567  0.03707813  0.57431743    -0.09200
C521        C  0.86137943  0.05276406  0.58238436     0.29700
C522        C  0.89376996  0.03505597  0.57337261    -0.21100
C523        C  0.89395343  0.00234983  0.55381876    -0.09200
C524        C  0.86045963  0.98543936  0.54733483     0.29700
F525        F  0.85917089  0.95357451  0.52893710    -0.19700
H526        H  0.80251220  0.98863026  0.55239212     0.18100
H527        H  0.91888944  0.04916389  0.57859945     0.18100
F528        F  0.86401899  0.08690781  0.59562364    -0.19700
C529        C  0.78757471  0.18652567  0.67219406    -0.21100
C530        C  0.75608921  0.19158560  0.69392579    -0.09200
C531        C  0.72597704  0.16910115  0.68743199     0.29700
C532        C  0.72750683  0.14258453  0.65997617    -0.21100
C533        C  0.75908723  0.13736529  0.63861110    -0.09200
C534        C  0.78920920  0.15969564  0.64504900     0.29700
F535        F  0.82003707  0.15613893  0.62457729    -0.19700
H536        H  0.81123296  0.20322607  0.67633799     0.18100
H537        H  0.70401230  0.12567066  0.65572443     0.18100
F538        F  0.69476112  0.17283995  0.70722342    -0.19700
C539        C  0.67041877  0.22034426  0.80366105    -0.21100
C540        C  0.69989632  0.24436139  0.80623780    -0.09200
C541        C  0.70151564  0.26713071  0.83727727     0.29700
C542        C  0.67433940  0.26593134  0.86445246    -0.21100
C543        C  0.64525349  0.24182358  0.86173772    -0.09200
C544        C  0.64347726  0.21899627  0.83109198     0.29700
F545        F  0.61531956  0.19580814  0.82742332    -0.19700
H546        H  0.66803222  0.20257173  0.78026496     0.18100
H547        H  0.67624387  0.28357720  0.88802337     0.18100
F548        F  0.72957137  0.29024293  0.84190511    -0.19700
C549        C  0.81083942  0.32539566  0.77964906    -0.21100
C550        C  0.80754033  0.30259344  0.74901273    -0.09200
C551        C  0.83058753  0.30881134  0.71854265     0.29700
C552        C  0.85600802  0.33695306  0.71901292    -0.21100
C553        C  0.85929314  0.35954252  0.74974957    -0.09200
C554        C  0.83624074  0.35342343  0.78009918     0.29700
F555        F  0.83736746  0.37531548  0.80990511    -0.19700
H556        H  0.79359348  0.32168982  0.80349698     0.18100
H557        H  0.87333151  0.34096486  0.69526851     0.18100
F558        F  0.82834523  0.28819185  0.68793097    -0.19700
C559        C  0.34749023  0.21741174  0.15432814    -0.21100
C560        C  0.35864991  0.24818207  0.13496576    -0.09200
C561        C  0.33826581  0.28041990  0.13976704     0.29700
C562        C  0.30882157  0.28197353  0.16456940    -0.21100
C563        C  0.29863622  0.25146872  0.18495688    -0.09200
C564        C  0.31783827  0.21880219  0.17861616     0.29700
F565        F  0.30809843  0.18786110  0.19579843    -0.19700
H566        H  0.36223499  0.19214931  0.15131220     0.18100
H567        H  0.29439502  0.30734091  0.16825641     0.18100
F568        F  0.34637968  0.31043820  0.12018559    -0.19700
C569        C  0.16222495  0.36670285  0.21740327    -0.21100
C570        C  0.13895705  0.37030835  0.24798929    -0.09200
C571        C  0.14324134  0.34610351  0.27719591     0.29700
C572        C  0.16966883  0.31861159  0.27539218    -0.21100
C573        C  0.19279638  0.31459267  0.24459519    -0.09200
C574        C  0.18894703  0.33947484  0.21569967     0.29700
F575        F  0.21043752  0.33730577  0.18537623    -0.19700
H576        H  0.15962786  0.38509210  0.19459808     0.18100
H577        H  0.17172369  0.30018589  0.29820609     0.18100
F578        F  0.12091044  0.34808574  0.30693303    -0.19700
C579        C  0.15127961  0.99529477  0.45263393    -0.21100
C580        C  0.12067642  0.99790695  0.43018037    -0.09200
C581        C  0.12404104  0.01793701  0.39770577     0.29700
C582        C  0.15631524  0.03654974  0.38944270    -0.21100
C583        C  0.18562785  0.03759713  0.41418150    -0.09200
C584        C  0.18264628  0.01563239  0.44572827     0.29700
F585        F  0.20834807  0.01570439  0.47194254    -0.19700
H586        H  0.14981853  0.98000030  0.47772462     0.18100
H587        H  0.15752373  0.05108023  0.36390343     0.18100
F588        F  0.09559051  0.02089490  0.37460027    -0.19700
C589        C  0.21518449  0.19977466  0.32342784    -0.21100
C590        C  0.24242316  0.20056936  0.29598531    -0.09200
C591        C  0.26940612  0.17324560  0.29609088     0.29700
C592        C  0.26892260  0.14624317  0.32254733    -0.21100
C593        C  0.24189944  0.14546054  0.34988025    -0.09200
C594        C  0.21486011  0.17249468  0.35012013     0.29700
F595        F  0.18887613  0.17319794  0.37673162    -0.19700
H596        H  0.19415679  0.22036359  0.32438461     0.18100
H597        H  0.28997776  0.12564184  0.32164128     0.18100
F598        F  0.29678545  0.17244968  0.27094608    -0.19700
C599        C  0.00350736  0.45854692  0.84947926    -0.21100
C600        C  0.98922396  0.44742220  0.88347091    -0.09200
C601        C  0.95669393  0.42739584  0.88355402     0.29700
C602        C  0.93781265  0.42141953  0.85122425    -0.21100
C603        C  0.95114818  0.43362257  0.81725624    -0.09200
C604        C  0.98509156  0.45139110  0.81674505     0.29700
F605        F  0.00063763  0.46205411  0.78479236    -0.19700
H606        H  0.02830249  0.47413868  0.84828329     0.18100
H607        H  0.91173672  0.40821289  0.85334355     0.18100
F608        F  0.94140897  0.41550517  0.91521424    -0.19700
C609        C  0.94512572  0.58030760  0.15139765    -0.21100
C610        C  0.96308180  0.57157632  0.18401640    -0.09200
C611        C  0.99884565  0.55773634  0.18115759     0.29700
C612        C  0.01508351  0.55165772  0.14644759    -0.21100
C613        C  0.99664362  0.56061574  0.11401576    -0.09200
C614        C  0.96185159  0.57638194  0.11737273     0.29700
F615        F  0.94254055  0.58627630  0.08764736    -0.19700
H616        H  0.91728342  0.58994266  0.15186752     0.18100
H617        H  0.04176251  0.53918297  0.14491787     0.18100
F618        F  0.01818994  0.55027740  0.21156423    -0.19700
C619        C  0.98718730  0.45207288  0.14445179    -0.21100
C620        C  0.00672843  0.44525205  0.11178153    -0.09200
C621        C  0.04262943  0.43220210  0.11436657     0.29700
C622        C  0.05873686  0.42745694  0.14828009    -0.21100
C623        C  0.03955803  0.43389287  0.18123420    -0.09200
C624        C  0.00306802  0.44593495  0.17882032     0.29700
F625        F  0.98247699  0.45155807  0.20931573    -0.19700
H626        H  0.95972688  0.46270175  0.14338718     0.18100
H627        H  0.08712931  0.41967035  0.14837703     0.18100
F628        F  0.06350349  0.42628236  0.08406537    -0.19700
C629        C  0.15076458  0.57332198  0.00070317    -0.21100
C630        C  0.11950891  0.57396300  0.02315526    -0.09200
C631        C  0.12291956  0.58326284  0.06004927     0.29700
C632        C  0.15718655  0.58829734  0.07501684    -0.21100
C633        C  0.18907216  0.58449228  0.05352442    -0.09200
C634        C  0.18535804  0.57865129  0.01563916     0.29700
F635        F  0.21498444  0.57675379  0.99327623    -0.19700
H636        H  0.14868186  0.56569781  0.97221444     0.18100
H637        H  0.15866366  0.59255191  0.10423945     0.18100
F638        F  0.09328151  0.58363324  0.08250644    -0.19700
C639        C  0.80900841  0.45448339  0.00424297    -0.21100
C640        C  0.80877001  0.44038094  0.04001593    -0.09200
C641        C  0.84253369  0.43320895  0.05653567     0.29700
C642        C  0.87500600  0.43931085  0.03792448    -0.21100
C643        C  0.87557559  0.45456617  0.00290677    -0.09200
C644        C  0.84208378  0.46181473  0.98589485     0.29700
F645        F  0.84118243  0.47753720  0.95247469    -0.19700
H646        H  0.78368342  0.46047211  0.99070542     0.18100
H647        H  0.90005154  0.43411363  0.05232458     0.18100
F648        F  0.84468131  0.42267151  0.09193931    -0.19700
C649        C  0.95851748  0.14575240  0.39388049    -0.21100
C650        C  0.97016956  0.17939300  0.40705352    -0.09200
C651        C  0.00325325  0.18069387  0.42633538     0.29700
C652        C  0.02156304  0.14868323  0.43565555    -0.21100
C653        C  0.00778655  0.11500722  0.42512508    -0.09200
C654        C  0.97731864  0.11410357  0.40219737     0.29700
F655        F  0.96383207  0.08220945  0.39010360    -0.19700
H656        H  0.93347484  0.14334545  0.37889328     0.18100
H657        H  0.04499082  0.15016985  0.45323516     0.18100
F658        F  0.01747244  0.21269415  0.43710152    -0.19700
C659        C  0.69896865  0.18299139  0.27814016    -0.21100
C660        C  0.69775491  0.20898392  0.25012806    -0.09200
C661        C  0.66967817  0.20714612  0.22431070     0.29700
C662        C  0.64427368  0.17939373  0.22607023    -0.21100
C663        C  0.64612351  0.15322406  0.25357172    -0.09200
C664        C  0.67337567  0.15536134  0.27990517     0.29700
F665        F  0.67629926  0.12973772  0.30618957    -0.19700
H666        H  0.72014791  0.18358006  0.29842504     0.18100
H667        H  0.62341937  0.17787164  0.20547056     0.18100
F668        F  0.66729913  0.23124168  0.19656803    -0.19700
C669        C  0.78017780  0.33845026  0.18484663    -0.21100
C670        C  0.74860364  0.31911157  0.19391071    -0.09200
C671        C  0.71578610  0.32824592  0.17661302     0.29700
C672        C  0.71510544  0.35551689  0.15028915    -0.21100
C673        C  0.74692171  0.37427385  0.14084576    -0.09200
C674        C  0.77941741  0.36572437  0.15872776     0.29700
F675        F  0.81036568  0.38427888  0.15162885    -0.19700
H676        H  0.80579736  0.33235214  0.19778850     0.18100
H677        H  0.68969656  0.36177418  0.13698249     0.18100
F678        F  0.68427695  0.31123833  0.18522974    -0.19700
C679        C  0.82288285  0.22125128  0.30683250    -0.21100
C680        C  0.81678611  0.25384164  0.28819530    -0.09200
C681        C  0.84128967  0.28255190  0.29302818     0.29700
C682        C  0.87003842  0.27904577  0.31737296    -0.21100
C683        C  0.87500149  0.24698409  0.33712528    -0.09200
C684        C  0.85163838  0.21778523  0.33104083     0.29700
F685        F  0.85510081  0.18668524  0.35028481    -0.19700
H686        H  0.80477158  0.19856452  0.30347762     0.18100
H687        H  0.88786219  0.30181498  0.32165167     0.18100
F688        F  0.83670984  0.31457686  0.27565674    -0.19700
C689        C  0.00380940  0.55924469  0.81459251    -0.21100
C690        C  0.04134065  0.56667349  0.81350610    -0.09200
C691        C  0.05991354  0.56897324  0.84689369     0.29700
C692        C  0.04119824  0.56682315  0.88008417    -0.21100
C693        C  0.00366300  0.56012758  0.88152004    -0.09200
C694        C  0.98519987  0.55541364  0.84830867     0.29700
F695        F  0.94930493  0.54730122  0.84843710    -0.19700
H696        H  0.98880665  0.55686938  0.78943638     0.18100
H697        H  0.05677602  0.56871344  0.90493894     0.18100
F698        F  0.09663366  0.57241200  0.84761461    -0.19700
C699        C  0.11634775  0.95525987  0.56142440    -0.21100
C700        C  0.11639635  0.99154024  0.55034627    -0.09200
C701        C  0.14991039  0.00961121  0.54780473     0.29700
C702        C  0.18245109  0.99156767  0.55698134    -0.21100
C703        C  0.18204780  0.95507827  0.56801961    -0.09200
C704        C  0.14844436  0.93707855  0.56923846     0.29700
F705        F  0.14650721  0.90118174  0.57652610    -0.19700
H706        H  0.09135711  0.93996030  0.56221973     0.18100
H707        H  0.20785443  0.00609844  0.55551474     0.18100
F708        F  0.15126116  0.04429029  0.53599506    -0.19700
C709        C  0.16089988  0.69420200  0.72465301    -0.21100
C710        C  0.18657674  0.69544642  0.75289206    -0.09200
C711        C  0.18630042  0.66767419  0.77926202     0.29700
C712        C  0.16099605  0.63976088  0.77727774    -0.21100
C713        C  0.13572074  0.63856579  0.74894404    -0.09200
C714        C  0.13577706  0.66607885  0.72262695     0.29700
F715        F  0.11083551  0.66633367  0.69558589    -0.19700
H716        H  0.16007249  0.71508941  0.70403921     0.18100
H717        H  0.16125774  0.61879290  0.79785929     0.18100
F718        F  0.21029148  0.66723545  0.80711813    -0.19700
C719        C  0.26354273  0.83546665  0.70269832    -0.21100
C720        C  0.23610879  0.80910386  0.70235126    -0.09200
C721        C  0.20951606  0.81079357  0.67493341     0.29700
C722        C  0.21119007  0.83760402  0.64813887    -0.21100
C723        C  0.23939874  0.86290425  0.64798473    -0.09200
C724        C  0.26525151  0.86201455  0.67581444     0.29700
F725        F  0.29215506  0.88690961  0.67700824    -0.19700
H726        H  0.28420844  0.83536172  0.72351751     0.18100
H727        H  0.19100453  0.83801115  0.62682610     0.18100
F728        F  0.18218818  0.78641065  0.67350402    -0.19700
C729        C  0.32119998  0.77891770  0.80651695    -0.21100
C730        C  0.29186246  0.75487835  0.81040759    -0.09200
C731        C  0.29058612  0.73213656  0.84121681     0.29700
C732        C  0.31828166  0.73319858  0.86696087    -0.21100
C733        C  0.34745029  0.75702544  0.86270787    -0.09200
C734        C  0.34877048  0.77997468  0.83238769     0.29700
F735        F  0.37749692  0.80225001  0.82703470    -0.19700
H736        H  0.32326884  0.79654352  0.78303763     0.18100
H737        H  0.31720719  0.71512180  0.89017122     0.18100
F738        F  0.26271412  0.70890225  0.84669625    -0.19700
C739        C  0.61398362  0.84152223  0.01936381    -0.21100
C740        C  0.58692123  0.81546654  0.02649199    -0.09200
C741        C  0.55265741  0.82059708  0.01014847     0.29700
C742        C  0.54570875  0.85118808  0.98891072    -0.21100
C743        C  0.57106978  0.87919847  0.98622276    -0.09200
C744        C  0.60591779  0.87341918  0.00038919     0.29700
F745        F  0.63166096  0.89936423  0.99739901    -0.19700
H746        H  0.64117750  0.83813773  0.02975433     0.18100
H747        H  0.51895458  0.85462932  0.97763248     0.18100
F748        F  0.52451246  0.79813428  0.01725977    -0.19700
C749        C  0.45244738  0.84925990  0.00739963    -0.21100
C750        C  0.44748724  0.88281470  0.98993354    -0.09200
C751        C  0.42931659  0.88296223  0.95621817     0.29700
C752        C  0.42004692  0.85070596  0.93898842    -0.21100
C753        C  0.42636494  0.81684930  0.95528542    -0.09200
C754        C  0.44169479  0.81665816  0.99054909     0.29700
F755        F  0.44644398  0.78518955  0.00880846    -0.19700
H756        H  0.46607200  0.84811346  0.03344247     0.18100
H757        H  0.40890278  0.85259413  0.91183008     0.18100
F758        F  0.42250537  0.91421107  0.93818330    -0.19700
C759        C  0.58737618  0.05696116  0.11681389    -0.21100
C760        C  0.58293527  0.01952159  0.11435970    -0.09200
C761        C  0.58697462  0.99839960  0.14592688     0.29700
C762        C  0.59266202  0.01501601  0.17993981    -0.21100
C763        C  0.59425181  0.05286470  0.18275538    -0.09200
C764        C  0.59245864  0.07360252  0.15050568     0.29700
F765        F  0.59217341  0.11028329  0.15177703    -0.19700
H766        H  0.58283620  0.07378583  0.09307319     0.18100
H767        H  0.59440400  0.99846207  0.20420664     0.18100
F768        F  0.58163519  0.96218552  0.14443560    -0.19700
C769        C  0.45447332  0.97470429  0.15227210    -0.21100
C770        C  0.45092257  0.95481687  0.11985114    -0.09200
C771        C  0.44204995  0.91809071  0.12180472     0.29700
C772        C  0.43950727  0.90093722  0.15565701    -0.21100
C773        C  0.44586206  0.92009202  0.18825797    -0.09200
C774        C  0.45194720  0.95761243  0.18626021     0.29700
F775        F  0.45675582  0.97758596  0.21697673    -0.19700
H776        H  0.46244074  0.00282306  0.15121126     0.18100
H777        H  0.43481328  0.87209512  0.15610922     0.18100
F778        F  0.43927064  0.89809988  0.09079626    -0.19700
C779        C  0.45975111  0.14245378  0.99400749    -0.21100
C780        C  0.45267695  0.10993476  0.01262913    -0.09200
C781        C  0.43901271  0.11216220  0.04874827     0.29700
C782        C  0.43254472  0.14564162  0.06542854    -0.21100
C783        C  0.43886740  0.17826333  0.04685645    -0.09200
C784        C  0.45265922  0.17625111  0.01068480     0.29700
F785        F  0.45865205  0.20672857  0.99109240    -0.19700
H786        H  0.47103735  0.14171337  0.96654340     0.18100
H787        H  0.42307330  0.14592621  0.09356473     0.18100
F788        F  0.43358601  0.08197215  0.06900904    -0.19700
C789        C  0.56193596  0.13753719  0.01531035    -0.21100
C790        C  0.57119187  0.10499572  0.99733158    -0.09200
C791        C  0.58921161  0.10724442  0.96320609     0.29700
C792        C  0.59404954  0.14046180  0.94608004    -0.21100
C793        C  0.58364084  0.17325506  0.96301520    -0.09200
C794        C  0.56875730  0.17127412  0.99886332     0.29700
F795        F  0.56056101  0.20158737  0.01824909    -0.19700
H796        H  0.54817906  0.13690058  0.04162696     0.18100
H797        H  0.60474721  0.13981718  0.91845796     0.18100
F798        F  0.59987028  0.07712979  0.94457779    -0.19700
C799        C  0.04571505  0.11757715  0.55715780    -0.21100
C800        C  0.01018514  0.11875310  0.54356504    -0.09200
C801        C  0.99325411  0.15277032  0.53957638     0.29700
C802        C  0.01213892  0.18466800  0.54855052    -0.21100
C803        C  0.04834993  0.18309042  0.56088723    -0.09200
C804        C  0.06485214  0.14884692  0.56445008     0.29700
F805        F  0.10051998  0.14521653  0.57293672    -0.19700
H806        H  0.06010827  0.09214579  0.56009542     0.18100
H807        H  0.99858084  0.21050430  0.54550513     0.18100
F808        F  0.95923008  0.15533288  0.52590048    -0.19700
C809        C  0.44549332  0.97809993  0.84833146    -0.21100
C810        C  0.44631747  0.00002222  0.87983272    -0.09200
C811        C  0.43458398  0.03622016  0.87722877     0.29700
C812        C  0.42563990  0.05076502  0.84353997    -0.21100
C813        C  0.42681058  0.02963437  0.81156924    -0.09200
C814        C  0.43549263  0.99267527  0.81446839     0.29700
F815        F  0.43503924  0.97086603  0.78460728    -0.19700
H816        H  0.45428312  0.95016021  0.84951689     0.18100
H817        H  0.41916876  0.07932215  0.84238004     0.18100
F818        F  0.43407329  0.05862473  0.90670892    -0.19700
C819        C  0.16951384  0.39876148  0.95532110    -0.21100
C820        C  0.19671749  0.42284033  0.94327632    -0.09200
C821        C  0.18918204  0.46001282  0.94344340     0.29700
C822        C  0.15532455  0.47267931  0.95466559    -0.21100
C823        C  0.12756615  0.44892843  0.96567412    -0.09200
C824        C  0.13514405  0.41171724  0.96676388     0.29700
F825        F  0.10914739  0.38798319  0.97728709    -0.19700
H826        H  0.17471659  0.36993157  0.95525494     0.18100
H827        H  0.15064949  0.50156627  0.95386611     0.18100
F828        F  0.21372389  0.48421624  0.93052108    -0.19700
C829        C  0.17415947  0.26595420  0.68955141    -0.21100
C830        C  0.19614626  0.23499920  0.69305207    -0.09200
C831        C  0.19083194  0.20565134  0.66901932     0.29700
C832        C  0.16500270  0.20800198  0.64150911    -0.21100
C833        C  0.14394529  0.23939008  0.63749295    -0.09200
C834        C  0.14829642  0.26817890  0.66215983     0.29700
F835        F  0.12729590  0.29837323  0.66005633    -0.19700
H836        H  0.17720424  0.28884397  0.70773689     0.18100
H837        H  0.16192991  0.18548732  0.62282004     0.18100
F838        F  0.21050265  0.17467781  0.67179056    -0.19700
C839        C  0.33110036  0.17677707  0.77310764    -0.21100
C840        C  0.30553697  0.17859269  0.74488211    -0.09200
C841        C  0.30755545  0.15290542  0.71631672     0.29700
C842        C  0.33448903  0.12621453  0.71629761    -0.21100
C843        C  0.35964246  0.12443183  0.74466983    -0.09200
C844        C  0.35788779  0.14998410  0.77306380     0.29700
F845        F  0.38260229  0.14953309  0.80031888    -0.19700
H846        H  0.33049416  0.19614208  0.79535435     0.18100
H847        H  0.33554039  0.10663320  0.69422943     0.18100
F848        F  0.28392022  0.15354329  0.68814669    -0.19700
C849        C  0.28297077  0.28954766  0.82569251    -0.21100
C850        C  0.25684745  0.29148933  0.79794512    -0.09200
C851        C  0.23347042  0.32183455  0.79684233     0.29700
C852        C  0.23581652  0.34888811  0.82336972    -0.21100
C853        C  0.26161115  0.34653303  0.85114747    -0.09200
C854        C  0.28543749  0.31681566  0.85197914     0.29700
F855        F  0.31026094  0.31355421  0.87894298    -0.19700
H856        H  0.30134896  0.26666876  0.82742542     0.18100
H857        H  0.21746190  0.37185052  0.82222024     0.18100
F858        F  0.20835185  0.32565230  0.77024703    -0.19700
C859        C  0.84631836  0.55328716  0.02173750    -0.21100
C860        C  0.87847759  0.56401945  0.00382556    -0.09200
C861        C  0.87576143  0.58338770  0.97090841     0.29700
C862        C  0.84216572  0.58866153  0.95465767    -0.21100
C863        C  0.80998939  0.57608260  0.97118618    -0.09200
C864        C  0.81229989  0.55946328  0.00575435     0.29700
F865        F  0.78190573  0.54857032  0.02380712    -0.19700
H866        H  0.84757799  0.53814896  0.04697074     0.18100
H867        H  0.84178218  0.60125938  0.92801743     0.18100
F868        F  0.90586312  0.59521150  0.95287277    -0.19700
C869        C  0.97156608  0.81708051  0.57396556    -0.21100
C870        C  0.93363948  0.81532184  0.57910568    -0.09200
C871        C  0.91288959  0.84710167  0.57463409     0.29700
C872        C  0.92947414  0.87919041  0.56343451    -0.21100
C873        C  0.96707899  0.88062341  0.55696106    -0.09200
C874        C  0.98821635  0.84948622  0.56312582     0.29700
F875        F  0.02444409  0.84961257  0.55571903    -0.19700
H876        H  0.98814690  0.79305454  0.57725266     0.18100
H877        H  0.91257361  0.90251163  0.55762342     0.18100
F878        F  0.87614160  0.84649218  0.57823404    -0.19700
C879        C  0.76486083  0.67165134  0.82596164    -0.21100
C880        C  0.73277268  0.69139120  0.81989392    -0.09200
C881        C  0.70297388  0.68637117  0.84407016     0.29700
C882        C  0.70533116  0.66178347  0.87294556    -0.21100
C883        C  0.73732652  0.64189081  0.87860006    -0.09200
C884        C  0.76722457  0.64728895  0.85491801     0.29700
F885        F  0.79835660  0.62786601  0.85877934    -0.19700
H886        H  0.78829483  0.67485119  0.80811628     0.18100
H887        H  0.68197502  0.65808106  0.89080782     0.18100
F888        F  0.67118189  0.70449173  0.83957925    -0.19700
C889        C  0.80975588  0.71356318  0.70061971    -0.21100
C890        C  0.78572436  0.74290277  0.70593716    -0.09200
C891        C  0.79005178  0.77360888  0.68353710     0.29700
C892        C  0.81708500  0.77449934  0.65635691    -0.21100
C893        C  0.84069413  0.74502549  0.65058140    -0.09200
C894        C  0.83689792  0.71450684  0.67330123     0.29700
F895        F  0.85991389  0.68587353  0.66972013    -0.19700
H896        H  0.80743171  0.68968217  0.71747751     0.18100
H897        H  0.81921241  0.79830965  0.63937016     0.18100
F898        F  0.76851977  0.80323675  0.68801887    -0.19700
C899        C  0.59827264  0.96682615  0.83344421    -0.21100
C900        C  0.57103966  0.96616879  0.80647101    -0.09200
C901        C  0.54074762  0.98947177  0.81152257     0.29700
C902        C  0.53655194  0.00967164  0.84371948    -0.21100
C903        C  0.56095302  0.00555595  0.87250205    -0.09200
C904        C  0.59272659  0.98522549  0.86657954     0.29700
F905        F  0.61731276  0.98135506  0.89368068    -0.19700
H906        H  0.62315028  0.95142169  0.83007560     0.18100
H907        H  0.51188785  0.02533560  0.84775346     0.18100
F908        F  0.51311921  0.99031537  0.78744112    -0.19700
C909        C  0.61951481  0.82482165  0.78465873    -0.21100
C910        C  0.61907200  0.84887889  0.75515699    -0.09200
C911        C  0.64501679  0.84480961  0.72695417     0.29700
C912        C  0.67096101  0.81731451  0.72828559    -0.21100
C913        C  0.67193587  0.79316839  0.75782345    -0.09200
C914        C  0.64549895  0.79697000  0.78597067     0.29700
F915        F  0.64486881  0.77429969  0.81501394    -0.19700
H916        H  0.59970390  0.82760853  0.80663088     0.18100
H917        H  0.69072886  0.81542453  0.70620105     0.18100
F918        F  0.64615604  0.86838195  0.69862211    -0.19700
C919        C  0.51931258  0.34653591  0.06217350    -0.21100
C920        C  0.49877789  0.37876114  0.06433609    -0.09200
C921        C  0.46186777  0.37634945  0.07479795     0.29700
C922        C  0.44567997  0.34302346  0.08062403    -0.21100
C923        C  0.46556056  0.31053894  0.07803867    -0.09200
C924        C  0.50306518  0.31273855  0.06933718     0.29700
F925        F  0.52408714  0.28252833  0.06770198    -0.19700
H926        H  0.54761152  0.34735316  0.05377975     0.18100
H927        H  0.41671409  0.34291552  0.08610834     0.18100
F928        F  0.44030511  0.40616107  0.07761859    -0.19700
C929        C  0.54499122  0.37010165  0.93654656    -0.21100
C930        C  0.51010636  0.37017064  0.95254570    -0.09200
C931        C  0.49331804  0.33661647  0.95898189     0.29700
C932        C  0.51150221  0.30404417  0.94963239    -0.21100
C933        C  0.54710552  0.30424113  0.93457569    -0.09200
C934        C  0.56356575  0.33810607  0.92873945     0.29700
F935        F  0.59883226  0.34081167  0.91787615    -0.19700
H936        H  0.55929811  0.39519235  0.93189506     0.18100
H937        H  0.49783906  0.27871973  0.95473064     0.18100
F938        F  0.46025915  0.33513339  0.97571629    -0.19700
C939        C  0.64740050  0.45826405  0.09414465    -0.21100
C940        C  0.67974737  0.47517352  0.08244928    -0.09200
C941        C  0.67677254  0.50958250  0.06614364     0.29700
C942        C  0.64238269  0.52397710  0.05782899    -0.21100
C943        C  0.61041471  0.50498490  0.06668421    -0.09200
C944        C  0.61346703  0.47338746  0.08761802     0.29700
F945        F  0.58370174  0.45448862  0.09831307    -0.19700
H946        H  0.64765727  0.43171835  0.10636864     0.18100
H947        H  0.64088759  0.54873486  0.04220067     0.18100
F948        F  0.70673924  0.52882637  0.05700717    -0.19700
C949        C  0.62796049  0.50611394  0.91121100    -0.21100
C950        C  0.62182505  0.48865521  0.94461889    -0.09200
C951        C  0.65101180  0.48562515  0.96900669     0.29700
C952        C  0.68255171  0.50591849  0.96351060    -0.21100
C953        C  0.68698099  0.52755145  0.93216455    -0.09200
C954        C  0.66070074  0.52410583  0.90434804     0.29700
F955        F  0.66592898  0.53860291  0.87071397    -0.19700
H956        H  0.60669719  0.50733334  0.89102227     0.18100
H957        H  0.70227570  0.50609600  0.98513201     0.18100
F958        F  0.64794666  0.46564846  0.99987579    -0.19700
C959        C  0.56452545  0.62185339  0.06935358    -0.21100
C960        C  0.52872630  0.62047348  0.05698694    -0.09200
C961        C  0.50921627  0.65287822  0.05240134     0.29700
C962        C  0.52580898  0.68618097  0.05929211    -0.21100
C963        C  0.56235147  0.68770911  0.07015314    -0.09200
C964        C  0.58134129  0.65494850  0.07570684     0.29700
F965        F  0.61716724  0.65471459  0.08409428    -0.19700
H966        H  0.58052645  0.59724035  0.07116693     0.18100
H967        H  0.51049404  0.71083291  0.05482733     0.18100
F968        F  0.47532828  0.65241840  0.03812014    -0.19700
C969        C  0.49638953  0.64277785  0.92544696    -0.21100
C970        C  0.47324633  0.61262946  0.92566418    -0.09200
C971        C  0.43616001  0.61803318  0.91920637     0.29700
C972        C  0.42207851  0.65283503  0.91551531    -0.21100
C973        C  0.44460951  0.68347199  0.91715265    -0.09200
C974        C  0.48230059  0.67796499  0.92099624     0.29700
F975        F  0.50534821  0.70641402  0.92135124    -0.19700
H976        H  0.52489612  0.63936507  0.93173431     0.18100
H977        H  0.39290916  0.65578282  0.91310758     0.18100
F978        F  0.41285827  0.58973865  0.92047201    -0.19700
C979        C  0.35200840  0.55615893  0.07759059    -0.21100
C980        C  0.31895330  0.53817348  0.07276310    -0.09200
C981        C  0.31993444  0.50248503  0.05910818     0.29700
C982        C  0.35360256  0.48548988  0.05088566    -0.21100
C983        C  0.38665530  0.50353595  0.05698213    -0.09200
C984        C  0.38512175  0.53923330  0.07060001     0.29700
F985        F  0.41564214  0.55886539  0.07602945    -0.19700
H986        H  0.35233069  0.58392422  0.08707757     0.18100
H987        H  0.35385491  0.45831794  0.03982137     0.18100
F988        F  0.28869038  0.48384290  0.05455393    -0.19700
C989        C  0.32853035  0.47767114  0.93140958    -0.21100
C990        C  0.33017919  0.44103316  0.92056266    -0.09200
C991        C  0.36464285  0.42465201  0.91652249     0.29700
C992        C  0.39610760  0.44427452  0.92310609    -0.21100
C993        C  0.39447558  0.48016678  0.93601199    -0.09200
C994        C  0.36018408  0.49684386  0.93974231     0.29700
F995        F  0.35706908  0.53115052  0.95265246    -0.19700
H996        H  0.30261911  0.49146792  0.93417314     0.18100
H997        H  0.42185021  0.43006505  0.92076150     0.18100
F998        F  0.36824718  0.38889047  0.90885194    -0.19700
C999        C  0.03941578  0.51762738  0.35037888    -0.21100
C1000       C  0.05024269  0.50193463  0.38353124    -0.09200
C1001       C  0.07065801  0.46959270  0.38174075     0.29700
C1002       C  0.07777168  0.45246750  0.34837961    -0.21100
C1003       C  0.06698233  0.46755308  0.31484288    -0.09200
C1004       C  0.04833249  0.50128013  0.31644074     0.29700
F1005       F  0.03887290  0.51900415  0.28560046    -0.19700
H1006       H  0.02361322  0.54242078  0.35070565     0.18100
H1007       H  0.09086288  0.42628764  0.34952544     0.18100
F1008       F  0.08212254  0.45281352  0.41250814    -0.19700
C1009       C  0.91799379  0.53894000  0.38307940    -0.21100
C1010       C  0.93345987  0.50426894  0.38490858    -0.09200
C1011       C  0.94276057  0.48677421  0.35166193     0.29700
C1012       C  0.93766357  0.50431717  0.31785191    -0.21100
C1013       C  0.92424134  0.54010451  0.31637875    -0.09200
C1014       C  0.91473306  0.55705761  0.34994054     0.29700
F1015       F  0.90524077  0.59251432  0.35164557    -0.19700
H1016       H  0.91153588  0.55388549  0.40783381     0.18100
H1017       H  0.94511823  0.49010510  0.29295734     0.18100
F1018       F  0.95817309  0.45336405  0.35182983    -0.19700
C1019       C  0.07117292  0.54087648  0.61209993    -0.21100
C1020       C  0.05540764  0.50644318  0.61142478    -0.09200
C1021       C  0.05068795  0.48818680  0.64490397     0.29700
C1022       C  0.05957911  0.50511396  0.67812843    -0.21100
C1023       C  0.07257307  0.54090768  0.67892629    -0.09200
C1024       C  0.07867489  0.55828557  0.64501564     0.29700
F1025       F  0.08883558  0.59340858  0.64312021    -0.19700
H1026       H  0.07471297  0.55608625  0.58708644     0.18100
H1027       H  0.05515147  0.49044579  0.70329788     0.18100
F1028       F  0.03536658  0.45494687  0.64581603    -0.19700
C1029       C  0.94470790  0.49116792  0.68338231    -0.21100
C1030       C  0.91340562  0.46976214  0.68831576    -0.09200
C1031       C  0.88774417  0.46996880  0.65962415     0.29700
C1032       C  0.89652855  0.48496240  0.62544411    -0.21100
C1033       C  0.92950713  0.50299159  0.61979711    -0.09200
C1034       C  0.95184857  0.50871742  0.65022085     0.29700
F1035       F  0.98222548  0.52906985  0.64730195    -0.19700
H1036       H  0.96508214  0.49317176  0.70429254     0.18100
H1037       H  0.87788450  0.48157979  0.60302005     0.18100
F1038       F  0.85415885  0.45566101  0.66405291    -0.19700
C1039       C  0.08647146  0.32591060  0.51064387    -0.21100
C1040       C  0.08334934  0.31533499  0.54736143    -0.09200
C1041       C  0.07475007  0.34144475  0.57414432     0.29700
C1042       C  0.06699534  0.37678727  0.56423557    -0.21100
C1043       C  0.06704965  0.38691373  0.52742387    -0.09200
C1044       C  0.07872220  0.36180164  0.50066619     0.29700
F1045       F  0.07851820  0.37079598  0.46473876    -0.19700
H1046       H  0.09384370  0.30627798  0.48979229     0.18100
H1047       H  0.05762524  0.39557510  0.58515705     0.18100
F1048       F  0.07150251  0.33214423  0.60989852    -0.19700
C1049       C  0.96093621  0.30926859  0.46299563    -0.21100
C1050       C  0.92624204  0.30175503  0.44979196    -0.09200
C1051       C  0.89820124  0.32766108  0.45578441     0.29500
C1052       C  0.90636420  0.36206369  0.46989244    -0.21100
C1053       C  0.94221779  0.37035164  0.47897315    -0.09200
C1054       C  0.96866262  0.34276150  0.47776102     0.29700
F1055       F  0.00319443  0.34908388  0.48821095    -0.19700
H1056       H  0.98329825  0.29042819  0.45927443     0.18100
H1057       H  0.88537027  0.38265885  0.47148308     0.18100
F1058       F  0.86334882  0.32035945  0.44676669    -0.19700
C1059       C  0.93095708  0.65279151  0.49131896    -0.21100
C1060       C  0.92801037  0.61906223  0.50866129    -0.09200
C1061       C  0.91350813  0.61829027  0.54456254     0.29700
C1062       C  0.90523467  0.65013241  0.56337109    -0.21100
C1063       C  0.90932881  0.68413113  0.54692674    -0.09200
C1064       C  0.92122119  0.68497656  0.50995068     0.29700
F1065       F  0.92344737  0.71668987  0.49162773    -0.19700
H1066       H  0.94191533  0.65440340  0.46378528     0.18100
H1067       H  0.89672138  0.64783372  0.59166381     0.18100
F1068       F  0.90877005  0.58667903  0.56266341    -0.19700
C1069       C  0.04410321  0.65283748  0.51979266    -0.21100
C1070       C  0.05182152  0.61878311  0.50433286    -0.09200
C1071       C  0.07642408  0.61650828  0.47474431     0.29700
C1072       C  0.09051662  0.64754836  0.45913348    -0.21100
C1073       C  0.08204926  0.68200838  0.47327756    -0.09200
C1074       C  0.05929580  0.68429993  0.50460791     0.29700
F1075       F  0.05131710  0.71668064  0.52031397    -0.19700
H1076       H  0.02493934  0.65528031  0.54237374     0.18100
H1077       H  0.10704085  0.64428585  0.43467300     0.18100
F1078       F  0.08549176  0.58418603  0.45933854    -0.19700
C1079       C  0.44078132  0.06327021  0.64498344    -0.21100
C1080       C  0.45824010  0.05765582  0.67849175    -0.09200
C1081       C  0.49546296  0.04811125  0.67775297     0.29700
C1082       C  0.51414569  0.04405009  0.64417612    -0.21100
C1083       C  0.49648480  0.05048720  0.61086766    -0.09200
C1084       C  0.45953635  0.06058691  0.61187521     0.29700
F1085       F  0.44050363  0.06567972  0.58073083    -0.19700
H1086       H  0.41197221  0.06930331  0.64413875     0.18100
H1087       H  0.54233493  0.03544374  0.64416838     0.18100
F1088       F  0.51400517  0.04319608  0.70918997    -0.19700
C1089       C  0.50287985  0.94059924  0.67676317    -0.21100
C1090       C  0.53636150  0.92220061  0.67935019    -0.09200
C1091       C  0.55319118  0.90950702  0.64694161     0.29700
C1092       C  0.53731151  0.91545525  0.61308628    -0.21100
C1093       C  0.50504645  0.93572089  0.61007809    -0.09200
C1094       C  0.48740103  0.94746162  0.64251150     0.29700
F1095       F  0.45618553  0.96713996  0.64123981    -0.19700
H1096       H  0.48912414  0.95033488  0.70110749     0.18100
H1097       H  0.55211759  0.90662503  0.58897841     0.18100
F1098       F  0.58658462  0.89371619  0.64735120    -0.19700
C1099       C  0.35941670  0.06153532  0.48285065    -0.21100
C1100       C  0.38884592  0.05720290  0.45836244    -0.09200
C1101       C  0.38296653  0.06173405  0.42079225     0.29700
C1102       C  0.34821194  0.06962879  0.40791754    -0.21100
C1103       C  0.31837443  0.07224455  0.43210737    -0.09200
C1104       C  0.32433673  0.06877903  0.46986034     0.29700
F1105       F  0.29622864  0.07184677  0.49403451    -0.19700
H1106       H  0.36313717  0.05683918  0.51177730     0.18100
H1107       H  0.34428548  0.07233631  0.37875785     0.18100
F1108       F  0.41056833  0.05642386  0.39636915    -0.19700
C1109       C  0.35508978  0.93233507  0.49834159    -0.21100
C1110       C  0.38609795  0.92972350  0.52025823    -0.09200
C1111       C  0.38189003  0.91979059  0.55694353     0.29700
C1112       C  0.34727669  0.91480754  0.57200088    -0.21100
C1113       C  0.31575610  0.91906139  0.55078074    -0.09200
C1114       C  0.32020824  0.92674377  0.51325476     0.29700
F1115       F  0.29104242  0.92973371  0.49110823    -0.19700
H1116       H  0.35769029  0.94126609  0.47027430     0.18100
H1117       H  0.34527082  0.90954882  0.60102765     0.18100
F1118       F  0.41118350  0.91818078  0.57911610    -0.19700
C1119       C  0.50325399  0.04746119  0.34870374    -0.21100
C1120       C  0.51971733  0.05431102  0.38260961    -0.09200
C1121       C  0.55287989  0.07312434  0.38256796     0.29700
C1122       C  0.57032815  0.08189864  0.34986701    -0.21100
C1123       C  0.55485029  0.07413796  0.31576057    -0.09200
C1124       C  0.52034830  0.05754578  0.31561189     0.29700
F1125       F  0.50305751  0.05093147  0.28376647    -0.19700
H1126       H  0.47778011  0.03300933  0.34772153     0.18100
H1127       H  0.59703056  0.09380062  0.35163461     0.18100
F1128       F  0.57019540  0.08103448  0.41412081    -0.19700
C1129       C  0.50311293  0.87905612  0.34498405    -0.21100
C1130       C  0.49534288  0.90325298  0.31620755    -0.09200
C1131       C  0.50710383  0.93935271  0.31991818     0.29700
C1132       C  0.52317620  0.95096945  0.35224598    -0.21100
C1133       C  0.52544159  0.92806976  0.38257832    -0.09200
C1134       C  0.51670051  0.89154141  0.37827290     0.29700
F1135       F  0.51952775  0.86834702  0.40676457    -0.19700
H1136       H  0.49673147  0.85066840  0.34275672     0.18100
H1137       H  0.53024740  0.97911402  0.35481393     0.18100
F1138       F  0.49997211  0.96472765  0.29430331    -0.19700
C1139       C  0.66487745  0.04340922  0.48570911    -0.21100
C1140       C  0.63120229  0.05081466  0.50281243    -0.09200
C1141       C  0.63114656  0.06907792  0.53662564     0.29700
C1142       C  0.66360826  0.07726319  0.55392907    -0.21100
C1143       C  0.69760510  0.06897300  0.53783153    -0.09200
C1144       C  0.69774341  0.05269906  0.50268068     0.29700
F1145       F  0.72931082  0.04556522  0.48449877    -0.19700
H1146       H  0.66586802  0.02913648  0.45982212     0.18100
H1147       H  0.66164825  0.08888057  0.58104297     0.18100
F1148       F  0.59955183  0.07761423  0.55424761    -0.19700
C1149       C  0.66338734  0.94622468  0.51738657    -0.21100
C1150       C  0.63039397  0.93588584  0.50155832    -0.09200
C1151       C  0.63169296  0.91510790  0.46932064     0.29700
C1152       C  0.66453407  0.90818975  0.45147369    -0.21100
C1153       C  0.69787264  0.91974638  0.46585624    -0.09200
C1154       C  0.69688867  0.93779661  0.50013262     0.29700
F1155       F  0.72786874  0.94782961  0.51698679    -0.19700
H1156       H  0.66323755  0.96246784  0.54206347     0.18100
H1157       H  0.66306984  0.89520104  0.42504258     0.18100
F1158       F  0.60078497  0.90346359  0.45324915    -0.19700
loop_ 
_geom_bond_atom_site_label_1 
_geom_bond_atom_site_label_2 
_geom_bond_distance 
_geom_bond_site_symmetry_2 
_ccdc_geom_bond_type 
O1            C9   1.282       .  A
O1          Co21   2.056   1_565  S
O2           C10   1.265       .  A
O2          Co22   1.979   1_565  S
O3           C11   1.269       .  A
O3          Co23   1.958       .  S
O4           C12   1.261       .  A
O4          Co24   1.979       .  S
O5           C11   1.282       .  A
O5          Co22   2.049   1_565  S
O6           C12   1.265       .  A
O6          Co21   2.010   1_565  S
O7           C10   1.274       .  A
O7          Co24   2.001       .  S
O8            C9   1.272       .  A
O8          Co23   1.948       .  S
C9         C1150   1.486       .  S
C10        C1110   1.469       .  S
C11        C1093   1.489       .  S
C12        C1133   1.477       .  S
O13          C26   1.268       .  A
O13         Co21   1.957       .  S
O14          C27   1.259       .  A
O14         Co22   1.963       .  S
O15          C28   1.285       .  A
O15         Co23   2.063   1_545  S
O16          C29   1.267       .  A
O16         Co24   1.985   1_545  S
O17          C29   1.273       .  A
O17         Co22   1.992       .  S
O18          C28   1.270       .  A
O18         Co21   1.943       .  S
O19          C26   1.285       .  A
O19         Co24   2.058   1_545  S
O20          C27   1.264       .  A
O20         Co23   2.021   1_545  S
Co21         O25   2.019   1_545  S
Co22         O25   2.029   1_545  S
Co23         O25   2.047       .  S
Co24         O25   2.038       .  S
C26        C1120   1.494       .  S
C27        C1083   1.486       .  S
C28        C1140   1.490       .  S
C29        C1100   1.473       .  S
O30          C38   1.282       .  A
O30         Co50   2.049       .  S
O31          C39   1.269       .  A
O31         Co51   1.977   1_655  S
O32          C40   1.272       .  A
O32         Co52   1.963       .  S
O33          C41   1.264       .  A
O33         Co53   1.982       .  S
O34          C40   1.283       .  A
O34         Co51   2.054   1_655  S
O35          C41   1.268       .  A
O35         Co50   2.019       .  S
O36          C39   1.272       .  A
O36         Co53   1.996       .  S
O37          C38   1.275       .  A
O37         Co52   1.955       .  S
C38        C1060   1.496       .  S
C39        C1053   1.474       .  S
C40        C1010   1.497       .  S
C41        C1033   1.493       .  S
O42          C55   1.267       .  A
O42         Co50   1.964   1_455  S
O43          C56   1.255       .  A
O43         Co51   1.958       .  S
O44          C57   1.285       .  A
O44         Co52   2.056   1_455  S
O45          C58   1.266       .  A
O45         Co53   1.979   1_455  S
O46          C58   1.267       .  A
O46         Co51   1.986       .  S
O47          C57   1.270       .  A
O47         Co50   1.934   1_455  S
O48          C55   1.281       .  A
O48         Co53   2.051   1_455  S
O49          C56   1.268       .  A
O49         Co52   2.049   1_455  S
Co50         O54   2.012       .  S
Co51         O54   2.026   1_455  S
Co52         O54   2.050       .  S
Co53         O54   2.052       .  S
C55        C1020   1.493       .  S
C56        C1000   1.500       .  S
C57        C1070   1.477       .  S
C58        C1043   1.468       .  S
O59          C67   1.253       .  A
O59         Co79   1.955       .  S
O60          C68   1.270       .  A
O60         Co80   1.961       .  S
O61          C69   1.281       .  A
O61         Co81   2.053   1_554  S
O62          C70   1.264       .  A
O62         Co82   1.982   1_554  S
O63          C69   1.272       .  A
O63         Co80   1.956       .  S
O64          C70   1.271       .  A
O64         Co79   1.995       .  S
O65          C68   1.282       .  A
O65         Co82   2.039   1_554  S
O66          C67   1.266       .  A
O66         Co81   2.048   1_554  S
C67         C983   1.493       .  S
C68         C943   1.484       .  S
C69         C920   1.494       .  S
C70         C960   1.465       .  S
O71          C84   1.266       .  A
O71         Co79   1.974   1_556  S
O72          C85   1.286       .  A
O72         Co80   2.061   1_556  S
O73          C86   1.263       .  A
O73         Co81   1.944       .  S
O74          C87   1.265       .  A
O74         Co82   1.979       .  S
O75          C87   1.267       .  A
O75         Co80   2.008   1_556  S
O76          C86   1.287       .  A
O76         Co79   2.067   1_556  S
O77          C84   1.275       .  A
O77         Co82   1.999       .  S
O78          C85   1.273       .  A
O78         Co81   1.950       .  S
Co79         O83   2.012   1_554  S
Co80         O83   2.020   1_554  S
Co81         O83   2.046       .  S
Co82         O83   2.042       .  S
C84         C970   1.471       .  S
C85         C930   1.493       .  S
C86         C993   1.487       .  S
C87         C950   1.487       .  S
C88         C900   1.509       .  S
C88          C89   1.419       .  A
C88          C93   1.415       .  A
C89          C90   1.411       .  A
C89          H94   1.081       .  S
C90        C1090   1.494       .  S
C90          C91   1.401       .  A
C91          C92   1.395       .  A
C91          H95   1.082       .  S
C92         C910   1.480       .  S
C92          C93   1.400       .  A
C93          H96   1.081       .  S
C97         C880   1.489       .  S
C97          N98   1.366       .  A
C97         N102   1.359       .  A
N98          C99   1.362       .  A
C99         C890   1.495       .  S
C99         N100   1.358       .  A
N100        C101   1.358       .  A
C101        C913   1.488       .  S
C101        N102   1.356       .  A
C103       C1063   1.508       .  S
C103        C104   1.414       .  A
C103        C108   1.415       .  A
C104        C105   1.412       .  A
C104        H109   1.082       .  S
C105        C870   1.494       .  S
C105        C106   1.406       .  A
C106        C107   1.406       .  A
C106        H110   1.083       .  S
C107        C893   1.497       .  S
C107        C108   1.406       .  A
C108        H111   1.082       .  S
C112        C863   1.495       .  S
C112        C113   1.413       .  A
C112        C117   1.404       .  A
C113        C114   1.418       .  A
C113        H118   1.081       .  S
C114        C953   1.509       .  S
C114        C115   1.412       .  A
C115        C116   1.400       .  A
C115        H119   1.079       .  S
C116        C883   1.485       .  S
C116        C117   1.396       .  A
C117        H120   1.083       .  S
C121        C840   1.480       .  S
C121        N122   1.357       .  A
C121        N126   1.356       .  A
N122        C123   1.357       .  A
C123        C850   1.483       .  S
C123        N124   1.357       .  A
N124        C125   1.358       .  A
C125        C830   1.480       .  S
C125        N126   1.356       .  A
C127        C990   1.498       .  S
C127        C128   1.408       .  A
C127        C132   1.409       .  A
C128        C129   1.409       .  A
C128        H133   1.083       .  S
C129        C820   1.484       .  S
C129        C130   1.399       .  A
C130        C131   1.400       .  A
C130        H134   1.084       .  S
C131        C853   1.475       .  S
C131        C132   1.402       .  A
C132        H135   1.082       .  S
C136        C813   1.489       .  S
C136        C137   1.415       .  A
C136        C141   1.402       .  A
C137        C138   1.415       .  A
C137        H142   1.081       .  S
C138       C1080   1.497       .  S
C138        C139   1.408       .  A
C139        C140   1.394       .  A
C139        H143   1.083       .  S
C140        C843   1.472       .  S
C140        C141   1.392       .  A
C141        H144   1.084       .  S
C145        C803   1.499       .  S
C145        C146   1.409       .  A
C145        C150   1.417       .  A
C146        C147   1.396       .  A
C146        H151   1.083       .  S
C147        C833   1.475       .  S
C147        C148   1.392       .  A
C148        C149   1.396       .  A
C148        H152   1.085       .  S
C149       C1040   1.477       .  S
C149        C150   1.414       .  A
C150        H153   1.083       .  S
O154        C162   1.289   1_545  A
O154       Co174   2.068       .  S
O155        C163   1.266       .  A
O155       Co175   1.978       .  S
O156        C164   1.267   1_556  A
O156       Co176   1.962       .  S
O157        C165   1.257   1_554  A
O157       Co177   1.962       .  S
O158        C164   1.286       .  A
O158       Co175   2.068       .  S
O159        C165   1.265       .  A
O159       Co174   2.036       .  S
O160        C163   1.271       .  A
O160       Co177   1.990   1_565  S
O161        C162   1.269       .  A
O161       Co176   1.920       .  S
C162        C810   1.482   1_565  S
C163        C770   1.462       .  S
C164        C750   1.500   1_554  S
C165        C780   1.497   1_556  S
O166        C179   1.265   1_556  A
O166       Co174   1.955       .  S
O167        C180   1.256       .  A
O167       Co175   1.969   1_556  S
O168        C181   1.288   1_565  A
O168       Co176   2.078       .  S
O169        C182   1.263       .  A
O169       Co177   1.971       .  S
O170        C182   1.271   1_565  A
O170       Co175   1.997       .  S
O171        C181   1.268       .  A
O171       Co174   1.923       .  S
O172        C179   1.285       .  A
O172       Co177   2.066       .  S
O173        C180   1.266       .  A
O173       Co176   2.024       .  S
Co174       O178   2.024   1_546  S
Co175       O178   2.034       .  S
Co176       O178   2.025   1_556  S
Co177       O178   2.035   1_545  S
C179        C790   1.496   1_554  S
C180        C743   1.486       .  S
C181        C903   1.474       .  S
C182        C760   1.463       .  S
C183        C730   1.484       .  S
C183        N184   1.359       .  A
C183        N188   1.355       .  A
N184        C185   1.360       .  A
C185        C710   1.490       .  S
C185        N186   1.361       .  A
N186        C187   1.359       .  A
C187        C720   1.485       .  S
C187        N188   1.356       .  A
C189        C973   1.499       .  S
C189        C190   1.422       .  A
C189        C194   1.400       .  A
C190        C191   1.425       .  A
C190        H195   1.081       .  S
C191        C753   1.511       .  S
C191        C192   1.413       .  A
C192        C193   1.396       .  A
C192        H196   1.083       .  S
C193        C733   1.471       .  S
C193        C194   1.388       .  A
C194        H197   1.084       .  S
C198        C703   1.496       .  S
C198        C199   1.407       .  A
C198        C203   1.416       .  A
C199        C200   1.394       .  A
C199        H204   1.084       .  S
C200        C723   1.476       .  S
C200        C201   1.396       .  A
C201        C202   1.406       .  A
C201        H205   1.083       .  S
C202       C1113   1.500       .  S
C202        C203   1.420       .  A
C203        H206   1.082       .  S
C207        C690   1.498       .  S
C207        C208   1.416       .  A
C207        C212   1.405       .  A
C208        C209   1.422       .  A
C208        H213   1.082       .  S
C209       C1023   1.508       .  S
C209        C210   1.412       .  A
C210        C211   1.398       .  A
C210        H214   1.081       .  S
C211        C713   1.481       .  S
C211        C212   1.394       .  A
C212        H215   1.084       .  S
C216        C670   1.481       .  S
C216        N217   1.358       .  A
C216        N221   1.358       .  A
N217        C218   1.358       .  A
C218        C660   1.482       .  S
C218        N219   1.357       .  A
N219        C220   1.356       .  A
C220        C680   1.480       .  S
C220        N221   1.355       .  A
C222       C1050   1.492       .  S
C222        C223   1.411       .  A
C222        C227   1.401       .  A
C223        C224   1.409       .  A
C223        H228   1.082       .  S
C224        C650   1.497       .  S
C224        C225   1.408       .  A
C225        C226   1.402       .  A
C225        H229   1.082       .  S
C226        C683   1.477       .  S
C226        C227   1.399       .  A
C227        H230   1.082       .  S
C231        C640   1.501       .  S
C231        C232   1.405       .  A
C231        C236   1.416       .  A
C232        C233   1.396       .  A
C232        H237   1.083       .  S
C233        C673   1.481       .  S
C233        C234   1.394       .  A
C234        C235   1.408       .  A
C234        H238   1.082       .  S
C235        C940   1.503       .  S
C235        C236   1.421       .  A
C236        H239   1.080       .  S
C240       C1123   1.505       .  S
C240        C241   1.412       .  A
C240        C245   1.420       .  A
C241        C242   1.396       .  A
C241        H246   1.083       .  S
C242        C663   1.471       .  S
C242        C243   1.390       .  A
C243        C244   1.398       .  A
C243        H247   1.084       .  S
C244        C763   1.489       .  S
C244        C245   1.416       .  A
C245        H248   1.081       .  S
O249        C257   1.285   1_556  A
O249       Co269   2.055       .  S
O250        C258   1.268       .  A
O250       Co270   1.987       .  S
O251        C259   1.267   1_655  A
O251       Co271   1.963       .  S
O252        C260   1.254   1_455  A
O252       Co272   1.953       .  S
O253        C259   1.280       .  A
O253       Co270   2.054       .  S
O254        C260   1.261       .  A
O254       Co269   2.036       .  S
O255        C258   1.272   1_556  A
O255       Co272   1.994       .  S
O256        C257   1.272       .  A
O256       Co271   1.935       .  S
C257        C860   1.482       .  S
C258        C630   1.469       .  S
C259        C613   1.496   1_455  S
C260        C693   1.492   1_655  S
O261        C274   1.266   1_655  A
O261       Co269   1.953       .  S
O262        C275   1.260   1_455  A
O262       Co270   1.965       .  S
O263        C276   1.287   1_554  A
O263       Co271   2.061       .  S
O264        C277   1.264       .  A
O264       Co272   1.966       .  S
O265        C277   1.271       .  A
O265       Co270   2.001   1_556  S
O266        C276   1.269       .  A
O266       Co269   1.942       .  S
O267        C274   1.286       .  A
O267       Co272   2.069       .  S
O268        C275   1.267       .  A
O268       Co271   2.032       .  S
Co269       O273   2.048   1_655  S
Co270       O273   2.044   1_554  S
Co271       O273   2.036   1_654  S
Co272       O273   2.030       .  S
C274        C600   1.496   1_455  S
C275        C620   1.493   1_655  S
C276        C643   1.489   1_556  S
C277        C823   1.482       .  S
C278        C583   1.522       .  S
C278        C279   1.422       .  A
C278        C283   1.421       .  A
C279        C280   1.410       .  A
C279        H284   1.079       .  S
C280       C1103   1.487       .  S
C280        C281   1.396       .  A
C281        C282   1.399       .  A
C281        H285   1.085       .  S
C282        C593   1.489       .  S
C282        C283   1.409       .  A
C283        H286   1.080       .  S
C287        C590   1.496       .  S
C287        N288   1.361       .  A
C287        N292   1.356       .  A
N288        C289   1.366       .  A
C289        C573   1.501       .  S
C289        N290   1.368       .  A
N290        C291   1.365       .  A
C291        C563   1.497       .  S
C291        N292   1.356       .  A
C293        C623   1.510       .  S
C293        C294   1.410       .  A
C293        C298   1.418       .  A
C294        C295   1.398       .  A
C294        H299   1.083       .  S
C295        C570   1.496       .  S
C295        C296   1.403       .  A
C296        C297   1.419       .  A
C296        H300   1.081       .  S
C297       C1003   1.521       .  S
C297        C298   1.422       .  A
C298        H301   1.076       .  S
C302        C923   1.506       .  S
C302        C303   1.416       .  A
C302        C307   1.412       .  A
C303        C304   1.417       .  A
C303        H308   1.081       .  S
C304        C783   1.506       .  S
C304        C305   1.413       .  A
C305        C306   1.406       .  A
C305        H309   1.083       .  S
C306        C560   1.502       .  S
C306        C307   1.401       .  A
C307        H310   1.082       .  S
C311        C550   1.498       .  S
C311        N312   1.363       .  A
C311        N316   1.362       .  A
N312        C313   1.362       .  A
C313        C540   1.499       .  S
C313        N314   1.362       .  A
N314        C315   1.362       .  A
C315        C530   1.496       .  S
C315        N316   1.363       .  A
C317       C1030   1.518       .  S
C317        C318   1.420       .  A
C317        C322   1.416       .  A
C318        C319   1.415       .  A
C318        H323   1.079       .  S
C319        C603   1.509       .  S
C319        C320   1.409       .  A
C320        C321   1.402       .  A
C320        H324   1.082       .  S
C321        C553   1.497       .  S
C321        C322   1.405       .  A
C322        H325   1.078       .  S
C326        C793   1.514       .  S
C326        C327   1.416       .  A
C326        C331   1.421       .  A
C327        C328   1.398       .  A
C327        H332   1.082       .  S
C328        C543   1.487       .  S
C328        C329   1.397       .  A
C329        C330   1.412       .  A
C329        H333   1.082       .  S
C330        C933   1.509       .  S
C330        C331   1.418       .  A
C331        H334   1.079       .  S
C335       C1143   1.510       .  S
C335        C336   1.415       .  A
C335        C340   1.414       .  A
C336        C337   1.416       .  A
C336        H341   1.078       .  S
C337        C520   1.507       .  S
C337        C338   1.410       .  A
C338        C339   1.401       .  A
C338        H342   1.081       .  S
C339        C533   1.494       .  S
C339        C340   1.403       .  A
C340        H343   1.082       .  S
C344        C493   1.492       .  S
C344        N345   1.362       .  A
C344        N349   1.362       .  A
N345        C346   1.359       .  A
C346        C500   1.488       .  S
C346        N347   1.357       .  A
N347        C348   1.357       .  A
C348        C510   1.483       .  S
C348        N349   1.360       .  A
C350       C1153   1.510       .  S
C350        C351   1.418       .  A
C350        C355   1.413       .  A
C351        C352   1.417       .  A
C351        H356   1.074       .  S
C352        C483   1.509       .  S
C352        C353   1.409       .  A
C353        C354   1.397       .  A
C353        H357   1.082       .  S
C354        C513   1.488       .  S
C354        C355   1.398       .  A
C355        H358   1.082       .  S
C359        C610   1.506       .  S
C359        C360   1.406       .  A
C359        C364   1.422       .  A
C360        C361   1.392       .  A
C360        H365   1.083       .  S
C361        C503   1.486       .  S
C361        C362   1.398       .  A
C362        C363   1.411       .  A
C362        H366   1.082       .  S
C363       C1013   1.512       .  S
C363        C364   1.425       .  A
C364        H367   1.081       .  S
C368        C740   1.508       .  S
C368        C369   1.416       .  A
C368        C373   1.415       .  A
C369        C370   1.410       .  A
C369        H374   1.081       .  S
C370        C963   1.493       .  S
C370        C371   1.400       .  A
C371        C372   1.398       .  A
C371        H375   1.083       .  S
C372        C490   1.482       .  S
C372        C373   1.404       .  A
C373        H376   1.082       .  S
C377        C460   1.480       .  S
C377        N378   1.359       .  A
C377        N382   1.357       .  A
N378        C379   1.356       .  A
C379        C450   1.479       .  S
C379        N380   1.357       .  A
N380        C381   1.357       .  A
C381        C473   1.483       .  S
C381        N382   1.356       .  A
C383       C1130   1.504       .  S
C383        C384   1.410       .  A
C383        C388   1.415       .  A
C384        C385   1.398       .  A
C384        H389   1.081       .  S
C385        C470   1.475       .  S
C385        C386   1.397       .  A
C386        C387   1.400       .  A
C386        H390   1.084       .  S
C387        C773   1.491       .  S
C387        C388   1.411       .  A
C388        H391   1.080       .  S
C392        C440   1.490       .  S
C392        C393   1.416       .  A
C392        C397   1.401       .  A
C393        C394   1.415       .  A
C393        H398   1.080       .  S
C394       C1073   1.496       .  S
C394        C395   1.408       .  A
C395        C396   1.392       .  A
C395        H399   1.083       .  S
C396        C463   1.467       .  S
C396        C397   1.390       .  A
C397        H400   1.084       .  S
C401        C980   1.496       .  S
C401        C402   1.403       .  A
C401        C406   1.413       .  A
C402        C403   1.397       .  A
C402        H407   1.084       .  S
C403        C453   1.487       .  S
C403        C404   1.399       .  A
C404        C405   1.408       .  A
C404        H408   1.082       .  S
C405        C633   1.498       .  S
C405        C406   1.421       .  A
C406        H409   1.082       .  S
O410        C418   1.267       .  A
O410       Co430   1.989       .  S
O411        C419   1.282   1_455  A
O411       Co431   2.051       .  S
O412        C420   1.257   1_565  A
O412       Co432   1.959       .  S
O413        C421   1.267   1_545  A
O413       Co433   1.954       .  S
O414        C420   1.267       .  A
O414       Co431   2.038       .  S
O415        C421   1.284       .  A
O415       Co430   2.057       .  S
O416        C419   1.272       .  A
O416       Co433   1.954       .  S
O417        C418   1.273   1_455  A
O417       Co432   2.002       .  S
C418        C873   1.477       .  S
C419        C800   1.489   1_655  S
C420        C700   1.487   1_545  S
C421        C523   1.488   1_565  S
O422        C435   1.254   1_565  A
O422       Co430   1.957       .  S
O423        C436   1.267   1_545  A
O423       Co431   1.964       .  S
O424        C437   1.267       .  A
O424       Co432   1.976       .  S
O425        C438   1.284   1_655  A
O425       Co433   2.055       .  S
O426        C438   1.273       .  A
O426       Co431   1.936       .  S
O427        C437   1.269   1_655  A
O427       Co430   1.985       .  S
O428        C435   1.265       .  A
O428       Co433   2.031       .  S
O429        C436   1.287       .  A
O429       Co432   2.065       .  S
Co430       O434   2.023   1_655  S
Co431       O434   2.038   1_545  S
Co432       O434   2.011       .  S
Co433       O434   2.032   1_645  S
C435        C480   1.488   1_545  S
C436        C580   1.498       .  S
C437        C443   1.458       .  S
C438        C653   1.480       .  S
C439        C440   1.409       .  A
C439        C444   1.389       .  A
C439        H446   1.082       .  S
C440        C441   1.410       .  A
C441        C442   1.403       .  A
C441        F448   1.357       .  S
C442        C443   1.404       .  A
C442        H447   1.084   1_455  S
C443        C444   1.398       .  A
C444        F445   1.358       .  S
C449        C450   1.406       .  A
C449        C454   1.399       .  A
C449        H456   1.083       .  S
C450        C451   1.406       .  A
C451        C452   1.393       .  A
C451        F458   1.358       .  S
C452        C453   1.406       .  A
C452        H457   1.083       .  S
C453        C454   1.409       .  A
C454        F455   1.357       .  S
C459        C460   1.407       .  A
C459        C464   1.393       .  A
C459        H466   1.083       .  S
C460        C461   1.412       .  A
C461        C462   1.395       .  A
C461        F468   1.356       .  S
C462        C463   1.399       .  A
C462        H467   1.084       .  S
C463        C464   1.401       .  A
C464        F465   1.358       .  S
C469        C470   1.401       .  A
C469        C474   1.396       .  A
C469        H476   1.083       .  S
C470        C471   1.404       .  A
C471        C472   1.394       .  A
C471        F478   1.358       .  S
C472        C473   1.407       .  A
C472        H477   1.083       .  S
C473        C474   1.412       .  A
C474        F475   1.356       .  S
C479        C480   1.407   1_545  A
C479        C484   1.408   1_545  A
C479        H486   1.083       .  S
C480        C481   1.408       .  A
C481        C482   1.390       .  A
C481        F488   1.358       .  S
C482        C483   1.410       .  A
C482        H487   1.081       .  S
C483        C484   1.416       .  A
C484        F485   1.355   1_565  S
C489        C490   1.403       .  A
C489        C494   1.396       .  A
C489        H496   1.084       .  S
C490        C491   1.403       .  A
C491        C492   1.403       .  A
C491        F498   1.357       .  S
C492        C493   1.411       .  A
C492        H497   1.083       .  S
C493        C494   1.412       .  A
C494        F495   1.357       .  S
C499        C500   1.408       .  A
C499        C504   1.397       .  A
C499        H506   1.083       .  S
C500        C501   1.410       .  A
C501        C502   1.399       .  A
C501        F508   1.357       .  S
C502        C503   1.406       .  A
C502        H507   1.083       .  S
C503        C504   1.405       .  A
C504        F505   1.357       .  S
C509        C510   1.406       .  A
C509        C514   1.397       .  A
C509        H516   1.083       .  S
C510        C511   1.408       .  A
C511        C512   1.402       .  A
C511        F518   1.357       .  S
C512        C513   1.406       .  A
C512        H517   1.083       .  S
C513        C514   1.407       .  A
C514        F515   1.358       .  S
C519        C520   1.414       .  A
C519        C524   1.407   1_545  A
C519        H526   1.082   1_545  S
C520        C521   1.414       .  A
C521        C522   1.392       .  A
C521        F528   1.356       .  S
C522        C523   1.404       .  A
C522        H527   1.083       .  S
C523        C524   1.408   1_545  A
C524        F525   1.357       .  S
C529        C530   1.409       .  A
C529        C534   1.403       .  A
C529        H536   1.083       .  S
C530        C531   1.412       .  A
C531        C532   1.403       .  A
C531        F538   1.357       .  S
C532        C533   1.405       .  A
C532        H537   1.083       .  S
C533        C534   1.409       .  A
C534        F535   1.358       .  S
C539        C540   1.411       .  A
C539        C544   1.404       .  A
C539        H546   1.083       .  S
C540        C541   1.414       .  A
C541        C542   1.403       .  A
C541        F548   1.357       .  S
C542        C543   1.402       .  A
C542        H547   1.083       .  S
C543        C544   1.404       .  A
C544        F545   1.357       .  S
C549        C550   1.408       .  A
C549        C554   1.401       .  A
C549        H556   1.083       .  S
C550        C551   1.413       .  A
C551        C552   1.405       .  A
C551        F558   1.357       .  S
C552        C553   1.406       .  A
C552        H557   1.083       .  S
C553        C554   1.409       .  A
C554        F555   1.358       .  S
C559        C560   1.405       .  A
C559        C564   1.400       .  A
C559        H566   1.083       .  S
C560        C561   1.415       .  A
C561        C562   1.406       .  A
C561        F568   1.357       .  S
C562        C563   1.406       .  A
C562        H567   1.083       .  S
C563        C564   1.414       .  A
C564        F565   1.357       .  S
C569        C570   1.407       .  A
C569        C574   1.404       .  A
C569        H576   1.083       .  S
C570        C571   1.407       .  A
C571        C572   1.404       .  A
C571        F578   1.357       .  S
C572        C573   1.411       .  A
C572        H577   1.083       .  S
C573        C574   1.412       .  A
C574        F575   1.357       .  S
C579        C580   1.405       .  A
C579        C584   1.403   1_565  A
C579        H586   1.081       .  S
C580        C581   1.408   1_565  A
C581        C582   1.407       .  A
C581        F588   1.358       .  S
C582        C583   1.417       .  A
C582        H587   1.081       .  S
C583        C584   1.418       .  A
C584        F585   1.355       .  S
C589        C590   1.411       .  A
C589        C594   1.407       .  A
C589        H596   1.083       .  S
C590        C591   1.413       .  A
C591        C592   1.394       .  A
C591        F598   1.357       .  S
C592        C593   1.403       .  A
C592        H597   1.084       .  S
C593        C594   1.407       .  A
C594        F595   1.357       .  S
C599        C600   1.409   1_455  A
C599        C604   1.408   1_455  A
C599        H606   1.083       .  S
C600        C601   1.412       .  A
C601        C602   1.397       .  A
C601        F608   1.358       .  S
C602        C603   1.408       .  A
C602        H607   1.082       .  S
C603        C604   1.415       .  A
C604        F605   1.357   1_655  S
C609        C610   1.409       .  A
C609        C614   1.389       .  A
C609        H616   1.083       .  S
C610        C611   1.412       .  A
C611        C612   1.414   1_655  A
C611        F618   1.356   1_655  S
C612        C613   1.413   1_455  A
C612        H617   1.083       .  S
C613        C614   1.408       .  A
C614        F615   1.356       .  S
C619        C620   1.409   1_655  A
C619        C624   1.412   1_655  A
C619        H626   1.083       .  S
C620        C621   1.408       .  A
C621        C622   1.393       .  A
C621        F628   1.358       .  S
C622        C623   1.409       .  A
C622        H627   1.082       .  S
C623        C624   1.416       .  A
C624        F625   1.356   1_455  S
C629        C630   1.406       .  A
C629        C634   1.406       .  A
C629        H636   1.083   1_554  S
C630        C631   1.399       .  A
C631        C632   1.394       .  A
C631        F638   1.358       .  S
C632        C633   1.411       .  A
C632        H637   1.082       .  S
C633        C634   1.411       .  A
C634        F635   1.357   1_554  S
C639        C640   1.411       .  A
C639        C644   1.412   1_554  A
C639        H646   1.083   1_554  S
C640        C641   1.412       .  A
C641        C642   1.389       .  A
C641        F648   1.357       .  S
C642        C643   1.402       .  A
C642        H647   1.083       .  S
C643        C644   1.412   1_554  A
C644        F645   1.357       .  S
C649        C650   1.405       .  A
C649        C654   1.393       .  A
C649        H656   1.082       .  S
C650        C651   1.415   1_655  A
C651        C652   1.404       .  A
C651        F658   1.357       .  S
C652        C653   1.403       .  A
C652        H657   1.083       .  S
C653        C654   1.409   1_455  A
C654        F655   1.358       .  S
C659        C660   1.409       .  A
C659        C664   1.396       .  A
C659        H666   1.083       .  S
C660        C661   1.410       .  A
C661        C662   1.395       .  A
C661        F668   1.357       .  S
C662        C663   1.401       .  A
C662        H667   1.084       .  S
C663        C664   1.401       .  A
C664        F665   1.358       .  S
C669        C670   1.406       .  A
C669        C674   1.393       .  A
C669        H676   1.083       .  S
C670        C671   1.410       .  A
C671        C672   1.398       .  A
C671        F678   1.357       .  S
C672        C673   1.405       .  A
C672        H677   1.083       .  S
C673        C674   1.405       .  A
C674        F675   1.357       .  S
C679        C680   1.406       .  A
C679        C684   1.394       .  A
C679        H686   1.083       .  S
C680        C681   1.410       .  A
C681        C682   1.397       .  A
C681        F688   1.357       .  S
C682        C683   1.404       .  A
C682        H687   1.083       .  S
C683        C684   1.404       .  A
C684        F685   1.358       .  S
C689        C690   1.410       .  A
C689        C694   1.412   1_455  A
C689        H696   1.083   1_455  S
C690        C691   1.410       .  A
C691        C692   1.392       .  A
C691        F698   1.359       .  S
C692        C693   1.405       .  A
C692        H697   1.083       .  S
C693        C694   1.410   1_455  A
C694        F695   1.357       .  S
C699        C700   1.404       .  A
C699        C704   1.389       .  A
C699        H706   1.083       .  S
C700        C701   1.409   1_565  A
C701        C702   1.412   1_545  A
C701        F708   1.357       .  S
C702        C703   1.411       .  A
C702        H707   1.082   1_565  S
C703        C704   1.409       .  A
C704        F705   1.358       .  S
C709        C710   1.409       .  A
C709        C714   1.399       .  A
C709        H716   1.083       .  S
C710        C711   1.412       .  A
C711        C712   1.398       .  A
C711        F718   1.356       .  S
C712        C713   1.402       .  A
C712        H717   1.083       .  S
C713        C714   1.404       .  A
C714        F715   1.358       .  S
C719        C720   1.409       .  A
C719        C724   1.394       .  A
C719        H726   1.083       .  S
C720        C721   1.411       .  A
C721        C722   1.399       .  A
C721        F728   1.357       .  S
C722        C723   1.403       .  A
C722        H727   1.083       .  S
C723        C724   1.402       .  A
C724        F725   1.358       .  S
C729        C730   1.410       .  A
C729        C734   1.396       .  A
C729        H736   1.083       .  S
C730        C731   1.410       .  A
C731        C732   1.397       .  A
C731        F738   1.356       .  S
C732        C733   1.401       .  A
C732        H737   1.084       .  S
C733        C734   1.400       .  A
C734        F735   1.358       .  S
C739        C740   1.414       .  A
C739        C744   1.404       .  A
C739        H746   1.081       .  S
C740        C741   1.414       .  A
C741        C742   1.399   1_554  A
C741        F748   1.356       .  S
C742        C743   1.402       .  A
C742        H747   1.079       .  S
C743        C744   1.404   1_556  A
C744        F745   1.357   1_554  S
C749        C750   1.411   1_554  A
C749        C754   1.414   1_554  A
C749        H756   1.083       .  S
C750        C751   1.410       .  A
C751        C752   1.395       .  A
C751        F758   1.357       .  S
C752        C753   1.409       .  A
C752        H757   1.082       .  S
C753        C754   1.414       .  A
C754        F755   1.356   1_556  S
C759        C760   1.399       .  A
C759        C764   1.391       .  A
C759        H766   1.085       .  S
C760        C761   1.406   1_545  A
C761        C762   1.405   1_565  A
C761        F768   1.357       .  S
C762        C763   1.406       .  A
C762        H767   1.083   1_545  S
C763        C764   1.412       .  A
C764        F765   1.358       .  S
C769        C770   1.402       .  A
C769        C774   1.400       .  A
C769        H776   1.084   1_565  S
C770        C771   1.402       .  A
C771        C772   1.396       .  A
C771        F778   1.358       .  S
C772        C773   1.408       .  A
C772        H777   1.083       .  S
C773        C774   1.410       .  A
C774        F775   1.357       .  S
C779        C780   1.409   1_556  A
C779        C784   1.412   1_556  A
C779        H786   1.083       .  S
C780        C781   1.411       .  A
C781        C782   1.397       .  A
C781        F788   1.358       .  S
C782        C783   1.407       .  A
C782        H787   1.083       .  S
C783        C784   1.414       .  A
C784        F785   1.357   1_554  S
C789        C790   1.408   1_554  A
C789        C794   1.411   1_554  A
C789        H796   1.083       .  S
C790        C791   1.410       .  A
C791        C792   1.393       .  A
C791        F798   1.358       .  S
C792        C793   1.410       .  A
C792        H797   1.081       .  S
C793        C794   1.418       .  A
C794        F795   1.356   1_556  S
C799        C800   1.405       .  A
C799        C804   1.386       .  A
C799        H806   1.083       .  S
C800        C801   1.410   1_455  A
C801        C802   1.414   1_655  A
C801        F808   1.357       .  S
C802        C803   1.413       .  A
C802        H807   1.082   1_455  S
C803        C804   1.409       .  A
C804        F805   1.358       .  S
C809        C810   1.408   1_565  A
C809        C814   1.405       .  A
C809        H816   1.083       .  S
C810        C811   1.409       .  A
C811        C812   1.389       .  A
C811        F818   1.358       .  S
C812        C813   1.405       .  A
C812        H817   1.083       .  S
C813        C814   1.407   1_545  A
C814        F815   1.357       .  S
C819        C820   1.412       .  A
C819        C824   1.408       .  A
C819        H826   1.083       .  S
C820        C821   1.402       .  A
C821        C822   1.386       .  A
C821        F828   1.358       .  S
C822        C823   1.408       .  A
C822        H827   1.082       .  S
C823        C824   1.404       .  A
C824        F825   1.356       .  S
C829        C830   1.405       .  A
C829        C834   1.393       .  A
C829        H836   1.083       .  S
C830        C831   1.411       .  A
C831        C832   1.395       .  A
C831        F838   1.357       .  S
C832        C833   1.401       .  A
C832        H837   1.084       .  S
C833        C834   1.405       .  A
C834        F835   1.358       .  S
C839        C840   1.407       .  A
C839        C844   1.394       .  A
C839        H846   1.083       .  S
C840        C841   1.412       .  A
C841        C842   1.395       .  A
C841        F848   1.357       .  S
C842        C843   1.400       .  A
C842        H847   1.083       .  S
C843        C844   1.403       .  A
C844        F845   1.358       .  S
C849        C850   1.408       .  A
C849        C854   1.396       .  A
C849        H856   1.083       .  S
C850        C851   1.411       .  A
C851        C852   1.396       .  A
C851        F858   1.357       .  S
C852        C853   1.401       .  A
C852        H857   1.083       .  S
C853        C854   1.403       .  A
C854        F855   1.358       .  S
C859        C860   1.406       .  A
C859        C864   1.406       .  A
C859        H866   1.083       .  S
C860        C861   1.408   1_554  A
C861        C862   1.391       .  A
C861        F868   1.358       .  S
C862        C863   1.406       .  A
C862        H867   1.082       .  S
C863        C864   1.412   1_556  A
C864        F865   1.357       .  S
C869        C870   1.408       .  A
C869        C874   1.407       .  A
C869        H876   1.083       .  S
C870        C871   1.409       .  A
C871        C872   1.399       .  A
C871        F878   1.358       .  S
C872        C873   1.403       .  A
C872        H877   1.084       .  S
C873        C874   1.407       .  A
C874        F875   1.357   1_655  S
C879        C880   1.405       .  A
C879        C884   1.397       .  A
C879        H886   1.083       .  S
C880        C881   1.415       .  A
C881        C882   1.400       .  A
C881        F888   1.357       .  S
C882        C883   1.402       .  A
C882        H887   1.083       .  S
C883        C884   1.408       .  A
C884        F885   1.358       .  S
C889        C890   1.408       .  A
C889        C894   1.406       .  A
C889        H896   1.083       .  S
C890        C891   1.412       .  A
C891        C892   1.399       .  A
C891        F898   1.357       .  S
C892        C893   1.404       .  A
C892        H897   1.083       .  S
C893        C894   1.412       .  A
C894        F895   1.357       .  S
C899        C900   1.415       .  A
C899        C904   1.401       .  A
C899        H906   1.081       .  S
C900        C901   1.415       .  A
C901        C902   1.400   1_565  A
C901        F908   1.354       .  S
C902        C903   1.400       .  A
C902        H907   1.082       .  S
C903        C904   1.401   1_545  A
C904        F905   1.358       .  S
C909        C910   1.402       .  A
C909        C914   1.403       .  A
C909        H916   1.083       .  S
C910        C911   1.405       .  A
C911        C912   1.392       .  A
C911        F918   1.358       .  S
C912        C913   1.406       .  A
C912        H917   1.083       .  S
C913        C914   1.415       .  A
C914        F915   1.356       .  S
C919        C920   1.409       .  A
C919        C924   1.414       .  A
C919        H926   1.083       .  S
C920        C921   1.410       .  A
C921        C922   1.389       .  A
C921        F928   1.358       .  S
C922        C923   1.406       .  A
C922        H927   1.082       .  S
C923        C924   1.416       .  A
C924        F925   1.356       .  S
C929        C930   1.405       .  A
C929        C934   1.391       .  A
C929        H936   1.084       .  S
C930        C931   1.410       .  A
C931        C932   1.414       .  A
C931        F938   1.357       .  S
C932        C933   1.415       .  A
C932        H937   1.082       .  S
C933        C934   1.412       .  A
C934        F935   1.357       .  S
C939        C940   1.411       .  A
C939        C944   1.389       .  A
C939        H946   1.081       .  S
C940        C941   1.413       .  A
C941        C942   1.407       .  A
C941        F948   1.356       .  S
C942        C943   1.409       .  A
C942        H947   1.083       .  S
C943        C944   1.405       .  A
C944        F945   1.358       .  S
C949        C950   1.401       .  A
C949        C954   1.401       .  A
C949        H956   1.083       .  S
C950        C951   1.409       .  A
C951        C952   1.400       .  A
C951        F958   1.356       .  S
C952        C953   1.410       .  A
C952        H957   1.080       .  S
C953        C954   1.418       .  A
C954        F955   1.357       .  S
C959        C960   1.399       .  A
C959        C964   1.396       .  A
C959        H966   1.084       .  S
C960        C961   1.405       .  A
C961        C962   1.403       .  A
C961        F968   1.358       .  S
C962        C963   1.408       .  A
C962        H967   1.083       .  S
C963        C964   1.412       .  A
C964        F965   1.357       .  S
C969        C970   1.408       .  A
C969        C974   1.409       .  A
C969        H976   1.083       .  S
C970        C971   1.401       .  A
C971        C972   1.393       .  A
C971        F978   1.358       .  S
C972        C973   1.411       .  A
C972        H977   1.083       .  S
C973        C974   1.409       .  A
C974        F975   1.357       .  S
C979        C980   1.403       .  A
C979        C984   1.387       .  A
C979        H986   1.084       .  S
C980        C981   1.411       .  A
C981        C982   1.415       .  A
C981        F988   1.356       .  S
C982        C983   1.411       .  A
C982        H987   1.083       .  S
C983        C984   1.411       .  A
C984        F985   1.358       .  S
C989        C990   1.412       .  A
C989        C994   1.404       .  A
C989        H996   1.082       .  S
C990        C991   1.408       .  A
C991        C992   1.394       .  A
C991        F998   1.358       .  S
C992        C993   1.409       .  A
C992        H997   1.083       .  S
C993        C994   1.406       .  A
C994        F995   1.357       .  S
C999       C1000   1.408       .  A
C999       C1004   1.414       .  A
C999       H1006   1.083       .  S
C1000      C1001   1.410       .  A
C1001      C1002   1.395       .  A
C1001      F1008   1.358       .  S
C1002      C1003   1.410       .  A
C1002      H1007   1.081       .  S
C1003      C1004   1.421       .  A
C1004      F1005   1.355       .  S
C1009      C1010   1.403       .  A
C1009      C1014   1.394       .  A
C1009      H1016   1.083       .  S
C1010      C1011   1.414       .  A
C1011      C1012   1.413       .  A
C1011      F1018   1.357       .  S
C1012      C1013   1.412       .  A
C1012      H1017   1.082       .  S
C1013      C1014   1.416       .  A
C1014      F1015   1.357       .  S
C1019      C1020   1.404       .  A
C1019      C1024   1.395       .  A
C1019      H1026   1.083       .  S
C1020      C1021   1.411       .  A
C1021      C1022   1.409       .  A
C1021      F1028   1.357       .  S
C1022      C1023   1.412       .  A
C1022      H1027   1.082       .  S
C1023      C1024   1.416       .  A
C1024      F1025   1.357       .  S
C1029      C1030   1.413       .  A
C1029      C1034   1.401       .  A
C1029      H1036   1.080       .  S
C1030      C1031   1.420       .  A
C1031      C1032   1.405       .  A
C1031      F1038   1.356       .  S
C1032      C1033   1.402       .  A
C1032      H1037   1.083       .  S
C1033      C1034   1.408       .  A
C1034      F1035   1.355       .  S
C1039      C1040   1.404       .  A
C1039      C1044   1.407       .  A
C1039      H1046   1.083       .  S
C1040      C1041   1.406       .  A
C1041      C1042   1.387       .  A
C1041      F1048   1.358       .  S
C1042      C1043   1.399       .  A
C1042      H1047   1.084       .  S
C1043      C1044   1.409       .  A
C1044      F1045   1.357       .  S
C1049      C1050   1.400       .  A
C1049      C1054   1.383       .  A
C1049      H1056   1.082       .  S
C1050      C1051   1.419       .  A
C1051      C1052   1.408       .  A
C1051      F1058   1.357       .  S
C1052      C1053   1.400       .  A
C1052      H1057   1.083       .  S
C1053      C1054   1.406       .  A
C1054      F1055   1.353   1_655  S
C1059      C1060   1.407       .  A
C1059      C1064   1.413       .  A
C1059      H1066   1.083       .  S
C1060      C1061   1.413       .  A
C1061      C1062   1.393       .  A
C1061      F1068   1.358       .  S
C1062      C1063   1.405       .  A
C1062      H1067   1.082       .  S
C1063      C1064   1.418       .  A
C1064      F1065   1.356       .  S
C1069      C1070   1.406       .  A
C1069      C1074   1.408       .  A
C1069      H1076   1.083       .  S
C1070      C1071   1.405       .  A
C1071      C1072   1.386       .  A
C1071      F1078   1.359       .  S
C1072      C1073   1.407       .  A
C1072      H1077   1.082       .  S
C1073      C1074   1.414       .  A
C1074      F1075   1.356       .  S
C1079      C1080   1.406       .  A
C1079      C1084   1.390       .  A
C1079      H1086   1.083       .  S
C1080      C1081   1.412       .  A
C1081      C1082   1.408       .  A
C1081      F1088   1.357       .  S
C1082      C1083   1.408       .  A
C1082      H1087   1.083       .  S
C1083      C1084   1.408       .  A
C1084      F1085   1.358       .  S
C1089      C1090   1.408       .  A
C1089      C1094   1.406       .  A
C1089      H1096   1.079       .  S
C1090      C1091   1.409       .  A
C1091      C1092   1.394       .  A
C1091      F1098   1.358       .  S
C1092      C1093   1.406       .  A
C1092      H1097   1.080       .  S
C1093      C1094   1.412       .  A
C1094      F1095   1.358       .  S
C1099      C1100   1.406       .  A
C1099      C1104   1.405       .  A
C1099      H1106   1.083       .  S
C1100      C1101   1.405       .  A
C1101      C1102   1.398       .  A
C1101      F1108   1.358       .  S
C1102      C1103   1.405       .  A
C1102      H1107   1.083       .  S
C1103      C1104   1.408       .  A
C1104      F1105   1.357       .  S
C1109      C1110   1.405       .  A
C1109      C1114   1.406       .  A
C1109      H1116   1.083       .  S
C1110      C1111   1.400       .  A
C1111      C1112   1.396       .  A
C1111      F1118   1.358       .  S
C1112      C1113   1.412       .  A
C1112      H1117   1.082       .  S
C1113      C1114   1.411       .  A
C1114      F1115   1.357       .  S
C1119      C1120   1.410       .  A
C1119      C1124   1.411       .  A
C1119      H1126   1.083       .  S
C1120      C1121   1.409       .  A
C1121      C1122   1.392       .  A
C1121      F1128   1.357       .  S
C1122      C1123   1.407       .  A
C1122      H1127   1.082       .  S
C1123      C1124   1.414       .  A
C1124      F1125   1.357       .  S
C1129      C1130   1.415       .  A
C1129      C1134   1.400       .  A
C1129      H1136   1.081       .  S
C1130      C1131   1.414       .  A
C1131      C1132   1.397       .  A
C1131      F1138   1.356       .  S
C1132      C1133   1.402       .  A
C1132      H1137   1.079       .  S
C1133      C1134   1.401       .  A
C1134      F1135   1.357       .  S
C1139      C1140   1.407       .  A
C1139      C1144   1.410       .  A
C1139      H1146   1.083       .  S
C1140      C1141   1.408       .  A
C1141      C1142   1.393       .  A
C1141      F1148   1.358       .  S
C1142      C1143   1.408       .  A
C1142      H1147   1.081       .  S
C1143      C1144   1.418       .  A
C1144      F1145   1.356       .  S
C1149      C1150   1.406       .  A
C1149      C1154   1.411       .  A
C1149      H1156   1.083       .  S
C1150      C1151   1.406       .  A
C1151      C1152   1.389       .  A
C1151      F1158   1.359       .  S
C1152      C1153   1.409       .  A
C1152      H1157   1.081       .  S
C1153      C1154   1.419       .  A
C1154      F1155   1.356       .  S
