geometry optimzed in LAMMPS
_audit_creation_date              2020-11-30 
_audit_creation_method            'lammps2cif' 
_symmetry_space_group_name_H-M    'P1' 
_symmetry_Int_Tables_number       1 
_symmetry_cell_setting            triclinic 
loop_ 
_symmetry_equiv_pos_as_xyz 
  x,y,z 
_cell_length_a                    33.24851677 
_cell_length_b                    33.14319812291005 
_cell_length_c                    33.000389431283594 
_cell_angle_alpha                 89.93836339693834 
_cell_angle_beta                  89.86728122605787 
_cell_angle_gamma                 90.11987758620029 
loop_ 
_atom_site_label 
_atom_site_type_symbol 
_atom_site_fract_x 
_atom_site_fract_y 
_atom_site_fract_z 
_atom_site_charge 
O1          O  0.57512869  0.04668930  0.51714773    -0.77700
O2          O  0.43982823  0.04489388  0.48266110    -0.77800
O3          O  0.53516453  0.03315175  0.41071313    -0.77800
O4          O  0.50211423  0.04492424  0.56017721    -0.77700
O5          O  0.47106448  0.01739903  0.40354905    -0.77800
O6          O  0.55536977  0.01871457  0.59167527    -0.77700
O7          O  0.41890964  0.03213617  0.54452508    -0.77700
O8          O  0.60173236  0.02174774  0.46245893    -0.77800
C9          C  0.60562796  0.04186728  0.49434935     1.12000
C10         C  0.41129471  0.04664984  0.50966863     1.11800
C11         C  0.50426264  0.02974698  0.38843615     1.12000
C12         C  0.52203439  0.03812568  0.59373437     1.11900
O13         O  0.52608865  0.94784490  0.56615241    -0.77700
O14         O  0.47026580  0.93901001  0.42932074    -0.77800
O15         O  0.58551433  0.94056605  0.46821486    -0.77700
O16         O  0.42497593  0.96139555  0.50544707    -0.77700
O17         O  0.40388114  0.98329585  0.44572010    -0.77800
O18         O  0.59905850  0.96727418  0.52869515    -0.77700
O19         O  0.46742175  0.97234836  0.57939076    -0.77700
O20         O  0.52963933  0.94963137  0.40224154    -0.77800
Co21       Co  0.54657299  0.99748288  0.53823566     1.51500
Co22       Co  0.45982752  0.99077327  0.45815214     1.51700
Co23       Co  0.55836156  0.98647492  0.44048822     1.51600
Co24       Co  0.46704079  0.00417732  0.52707978     1.51500
O25         O  0.51516663  0.98689847  0.48751506    -1.39700
C26         C  0.49760341  0.95253235  0.59127485     1.11900
C27         C  0.49362845  0.93814319  0.39879977     1.12000
C28         C  0.61005344  0.94742459  0.49718430     1.11900
C29         C  0.39605092  0.96599332  0.47929620     1.11900
O30         O  0.95698019  0.57385095  0.53783130    -0.77700
O31         O  0.95674582  0.41298946  0.47953758    -0.77800
O32         O  0.95521997  0.52148330  0.42770426    -0.77800
O33         O  0.95888268  0.46249166  0.58820925    -0.77700
O34         O  0.97364874  0.45994221  0.41268374    -0.77800
O35         O  0.97639556  0.52409816  0.60379243    -0.77700
O36         O  0.97631898  0.39671695  0.54054472    -0.77700
O37         O  0.97387321  0.58879293  0.47555074    -0.77800
C38         C  0.95912607  0.59978057  0.50939406     1.12000
C39         C  0.95968052  0.38683785  0.50747494     1.11800
C40         C  0.95764431  0.49294762  0.40210378     1.12000
C41         C  0.96145356  0.49034134  0.61443289     1.11900
O42         O  0.04742408  0.49670679  0.56807962    -0.77700
O43         O  0.04589243  0.48908320  0.44211735    -0.77800
O44         O  0.04588575  0.55601712  0.50305528    -0.77700
O45         O  0.04716312  0.42773709  0.50972957    -0.77700
O46         O  0.03102139  0.40453670  0.44951336    -0.77800
O47         O  0.03266737  0.58062502  0.56375736    -0.77700
O48         O  0.03525966  0.43725198  0.59481822    -0.77700
O49         O  0.02990911  0.54919641  0.41839909    -0.77800
Co50       Co  0.00149442  0.53366913  0.54858169     1.51500
Co51       Co  0.00110550  0.45216126  0.46612535     1.51700
Co52       Co  0.00000035  0.53425339  0.46667783     1.51600
Co53       Co  0.00265214  0.45077900  0.54766560     1.51500
O54         O  0.97790036  0.49265157  0.50773561    -1.39700
C55         C  0.04747861  0.47353269  0.59990172     1.11900
C56         C  0.04354770  0.51381361  0.41138274     1.12000
C57         C  0.04493296  0.58686408  0.52749743     1.11900
C58         C  0.04473051  0.39712711  0.48490544     1.11900
O59         O  0.42785873  0.51497472  0.02839335    -0.77700
O60         O  0.56618154  0.49386495  0.03802317    -0.77800
O61         O  0.50331158  0.43828458  0.03862053    -0.77800
O62         O  0.52915789  0.57970422  0.02316739    -0.77700
O63         O  0.56365537  0.41288341  0.02450068    -0.77800
O64         O  0.46500871  0.58685763  0.01109215    -0.77700
O65         O  0.59145745  0.54769210  0.01091006    -0.77700
O66         O  0.41768884  0.44855631  0.02194898    -0.77800
C67         C  0.40450970  0.48376953  0.03134567     1.12000
C68         C  0.59591603  0.51800695  0.03384211     1.11800
C69         C  0.52784745  0.40736490  0.03797019     1.12000
C70         C  0.49779521  0.60129119  0.02384338     1.11900
O71         O  0.46534309  0.58160646  0.93926188    -0.77700
O72         O  0.53590758  0.41692304  0.94839332    -0.77800
O73         O  0.42871148  0.46465862  0.94406196    -0.77700
O74         O  0.59309903  0.53301624  0.94220820    -0.77700
O75         O  0.60145131  0.46955010  0.96409374    -0.77800
O76         O  0.40796066  0.52571339  0.95311655    -0.77700
O77         O  0.53133321  0.59333485  0.94111485    -0.77700
O78         O  0.47485084  0.40255824  0.96883528    -0.77800
Co79       Co  0.46060769  0.53565649  0.97949898     1.51500
Co80       Co  0.54743531  0.45804741  0.99209299     1.51700
Co81       Co  0.46696574  0.45839215  0.99149658     1.51600
Co82       Co  0.54454440  0.54625827  0.97514980     1.51500
O83         O  0.50914886  0.49719934  0.96673573    -1.39700
C84         C  0.49589069  0.60437083  0.93244947     1.11900
C85         C  0.50740488  0.39139107  0.95208615     1.12000
C86         C  0.40026471  0.49011669  0.94269332     1.11900
C87         C  0.61512257  0.50176504  0.94699794     1.11900
C88         C  0.55411937  0.97071046  0.77673270     0.82600
N89         N  0.52810325  0.96905392  0.74400731    -0.75700
C90         C  0.54034442  0.95093668  0.70817918     0.85100
N91         N  0.57787637  0.93516409  0.70596879    -0.75600
C92         C  0.60309559  0.93710515  0.73800261     0.85200
N93         N  0.59117270  0.95454986  0.77292693    -0.77300
C94         C  0.75956623  0.82620839  0.77840678     0.82600
N95         N  0.74940479  0.80461012  0.81179835    -0.75700
C96         C  0.77303807  0.77367543  0.82403311     0.85100
N97         N  0.80628202  0.76376139  0.80234947    -0.75600
C98         C  0.81636415  0.78541854  0.76897630     0.85200
N99         N  0.79275962  0.81639969  0.75675618    -0.77300
C100        C  0.97075267  0.78608282  0.56681973     0.82600
N101        N  0.97117742  0.75250598  0.54176910    -0.75700
C102        C  0.95404424  0.71652116  0.55483953     0.85100
N103        N  0.93693665  0.71515689  0.59223347    -0.75600
C104        C  0.93686833  0.74808939  0.61655170     0.85200
N105        N  0.95353319  0.78301667  0.60375487    -0.77300
C106        C  0.79602774  0.56580737  0.95582080     0.82600
N107        N  0.76576606  0.53716875  0.95457711    -0.75700
C108        C  0.72752401  0.54820231  0.94256622     0.85100
N109        N  0.72034719  0.58718409  0.93234200    -0.75600
C110        C  0.75005256  0.61509680  0.93402499     0.85200
N111        N  0.78750692  0.60429079  0.94543392    -0.77300
C112        C  0.24106994  0.18181225  0.75702634     0.82600
N113        N  0.25070328  0.20101050  0.79195383    -0.75700
C114        C  0.22680638  0.23101393  0.80602916     0.85100
N115        N  0.19373749  0.24224748  0.78488723    -0.75600
C116        C  0.18425755  0.22297027  0.75003934     0.85200
N117        N  0.20803956  0.19294422  0.73594471    -0.77300
C118        C  0.28836127  0.43750063  0.94871157     0.82600
N119        N  0.28831644  0.40019261  0.93204591    -0.75700
C120        C  0.25653273  0.37510005  0.93717290     0.85100
N121        N  0.22407911  0.38715803  0.95881119    -0.75600
C122        C  0.22310691  0.42421164  0.97601580     0.85200
N123        N  0.25544388  0.44975375  0.97086810    -0.77300
C124        C  0.43699737  0.03147921  0.76775060     0.82600
N125        N  0.40055172  0.04765091  0.75995688    -0.75700
C126        C  0.39201316  0.06308470  0.72305997     0.85100
N127        N  0.42012712  0.06295121  0.69331126    -0.75600
C128        C  0.45708175  0.04699199  0.70002227     0.85200
N129        N  0.46574891  0.03120134  0.73765120    -0.77300
C130        C  0.04742991  0.28145810  0.53589633     0.82600
N131        N  0.06353840  0.28359331  0.57349872    -0.75700
C132        C  0.06352055  0.25106859  0.59832359     0.85100
N133        N  0.04760259  0.21560778  0.58594788    -0.75600
C134        C  0.03108156  0.21171690  0.54874339     0.85200
N135        N  0.03099469  0.24505986  0.52319224    -0.77300
O136        O  0.54385588  0.99219199  0.92545201    -0.77700
O137        O  0.54872317  0.00033161  0.05354412    -0.77800
O138        O  0.55022131  0.06004534  0.98473278    -0.77800
O139        O  0.54325348  0.93239838  0.99391155    -0.77700
O140        O  0.54058601  0.08572474  0.04554097    -0.77800
O141        O  0.52404325  0.90961881  0.93407794    -0.77700
O142        O  0.53199967  0.94094643  0.07865171    -0.77700
O143        O  0.53195749  0.05267310  0.90061594    -0.77800
C144        C  0.54221390  0.01610563  0.89407116     1.12000
C145        C  0.54643926  0.97615603  0.08475600     1.11800
C146        C  0.55153673  0.09125872  0.00874746     1.12000
C147        C  0.53886849  0.90212170  0.96893694     1.11900
O148        O  0.45144597  0.92241099  0.96594929    -0.77700
O149        O  0.46437512  0.08366678  0.02029543    -0.77800
O150        O  0.45584807  0.02974650  0.91227259    -0.77700
O151        O  0.45897781  0.97436634  0.07416334    -0.77700
O152        O  0.48016124  0.03567079  0.08667659    -0.77800
O153        O  0.46912707  0.96673165  0.89844886    -0.77700
O154        O  0.47119846  0.90626245  0.02672188    -0.77700
O155        O  0.47973260  0.09571025  0.95703165    -0.77800
Co156      Co  0.49762917  0.95853724  0.95104588     1.51500
Co157      Co  0.50597427  0.04063419  0.03182296     1.51700
Co158      Co  0.50241733  0.04002803  0.94973582     1.51600
Co159      Co  0.50088899  0.95865306  0.03251581     1.51500
O160        O  0.47819995  0.00105535  0.99228156    -1.39700
C161        C  0.45386649  0.89653710  0.99407761     1.11900
C162        C  0.46638409  0.10822876  0.99072398     1.12000
C163        C  0.45501899  0.00043220  0.88759498     1.11900
C164        C  0.46261376  0.00380862  0.09861320     1.11900
C165        C  0.23391915  0.75515007  0.79773635     0.82600
N166        N  0.24685875  0.78177104  0.76935858    -0.75700
C167        C  0.22308711  0.79069332  0.73740889     0.85100
N168        N  0.18668033  0.77278631  0.73349848    -0.75600
C169        C  0.17377874  0.74632184  0.76195394     0.85200
N170        N  0.19754228  0.73707933  0.79391731    -0.77300
C171        C  0.43434461  0.78116967  0.95249530     0.82600
N172        N  0.46269092  0.75125787  0.94798276    -0.75700
C173        C  0.45278145  0.71650113  0.92749163     0.85100
N174        N  0.41539380  0.71202842  0.91239825    -0.75600
C175        C  0.38771929  0.74123798  0.91714486     0.85200
N176        N  0.39715295  0.77571015  0.93682605    -0.77300
C177        C  0.21756227  0.96250357  0.54879487     0.82600
N178        N  0.21931618  0.93337100  0.57738266    -0.75700
C179        C  0.25274808  0.91066659  0.58161542     0.85100
N180        N  0.28497287  0.91681012  0.55725382    -0.75600
C181        C  0.28396132  0.94550741  0.52802214     0.85200
N182        N  0.25005743  0.96876447  0.52382241    -0.77300
C183        C  0.02641032  0.54484393  0.77997262     0.82600
N184        N  0.03003258  0.51841552  0.74783648    -0.75700
C185        C  0.04474633  0.53190872  0.71103509     0.85100
N186        N  0.05565288  0.57122826  0.70721630    -0.75600
C187        C  0.05179036  0.59699228  0.73883577     0.85200
N188        N  0.03755941  0.58373128  0.77481116    -0.77300
C189        C  0.72809236  0.30444776  0.24653041     0.82600
N190        N  0.75576615  0.29456754  0.27490201    -0.75700
C191        C  0.75271594  0.25888970  0.29466952     0.85100
N192        N  0.72257064  0.23296799  0.28587550    -0.75600
C193        C  0.69509194  0.24290367  0.25736388     0.85200
N194        N  0.69792568  0.27851529  0.23746784    -0.77300
C195        C  0.96746684  0.20766354  0.43820417     0.82600
N196        N  0.97428184  0.24176264  0.46101846    -0.75700
C197        C  0.94595279  0.27200719  0.46220212     0.85100
N198        N  0.91170934  0.26770188  0.44061705    -0.75600
C199        C  0.90512733  0.23414242  0.41837892     0.85200
N200        N  0.93277436  0.20438245  0.41711279    -0.77300
C201        C  0.77931711  0.46255793  0.04890868     0.82600
N202        N  0.74493369  0.48159941  0.03548904    -0.75700
C203        C  0.71134575  0.48243718  0.06014485     0.85100
N204        N  0.71253410  0.46445294  0.09676911    -0.75600
C205        C  0.74614963  0.44598118  0.10971263     0.85200
N206        N  0.77920191  0.44475943  0.08586170    -0.77300
C207        C  0.55309900  0.02741459  0.19920794     0.82600
N208        N  0.57418196  0.06237833  0.19762812    -0.75700
C209        C  0.57633040  0.08677878  0.23033439     0.85100
N210        N  0.55757770  0.07660147  0.26517653    -0.75600
C211        C  0.53614759  0.04207638  0.26816606     0.85200
N212        N  0.53374126  0.01687382  0.23486744    -0.77300
O213        O  0.94503434  0.54702845  0.97365990    -0.77700
O214        O  0.07776350  0.53596883  0.00938294    -0.77800
O215        O  0.98464175  0.54674259  0.07826004    -0.77800
O216        O  0.01385457  0.53211041  0.92942163    -0.77700
O217        O  0.04469526  0.52298191  0.09139090    -0.77800
O218        O  0.95653759  0.50534021  0.90552593    -0.77700
O219        O  0.09494110  0.51352876  0.94912855    -0.77700
O220        O  0.91462908  0.53594819  0.03060556    -0.77800
C221        C  0.91359659  0.54948757  0.99516496     1.12000
C222        C  0.10517559  0.53187335  0.98133418     1.11800
C223        C  0.01316783  0.54132281  0.10303798     1.12000
C224        C  0.99013931  0.52316234  0.89875633     1.11900
O225        O  0.97991564  0.43729640  0.94119636    -0.77700
O226        O  0.03550490  0.44251393  0.07860454    -0.77800
O227        O  0.91829752  0.45421228  0.04059620    -0.77700
O228        O  0.08205132  0.45045859  0.99826655    -0.77700
O229        O  0.10664103  0.47659867  0.05474291    -0.77800
O230        O  0.90993277  0.47025505  0.97529470    -0.77700
O231        O  0.04023115  0.45480734  0.92433386    -0.77700
O232        O  0.97835394  0.46590542  0.10290970    -0.77800
Co233      Co  0.96565639  0.49209792  0.96091599     1.51500
Co234      Co  0.05159610  0.48796169  0.04143286     1.51700
Co235      Co  0.95344172  0.49967183  0.05881218     1.51600
Co236      Co  0.04432422  0.49383566  0.97061078     1.51500
O237        O  0.99558434  0.48608013  0.01265643    -1.39700
C238        C  0.00812648  0.43665383  0.91537479     1.11900
C239        C  0.01160845  0.44818016  0.10838859     1.12000
C240        C  0.89576895  0.45782307  0.00936349     1.11900
C241        C  0.11218392  0.45570067  0.02288328     1.11900
C242        C  0.22910007  0.03721772  0.44573496     0.82600
N243        N  0.22544620  0.07138321  0.42376079    -0.75700
C244        C  0.25565944  0.09849851  0.42231982     0.85100
N245        N  0.29021008  0.09201550  0.44269083    -0.75600
C246        C  0.29520613  0.05827805  0.46510078     0.85200
N247        N  0.26432189  0.03034297  0.46680724    -0.77300
C248        C  0.28161716  0.25670107  0.30718452     0.82600
N249        N  0.26280487  0.29279665  0.30719957    -0.75700
C250        C  0.27353897  0.32134502  0.27987108     0.85100
N251        N  0.30242827  0.31343811  0.25200771    -0.75600
C252        C  0.32124125  0.27727139  0.25230977     0.85200
N253        N  0.31067308  0.24870276  0.27959399    -0.77300
C254        C  0.05874623  0.45063855  0.22519689     0.82600
N255        N  0.09699619  0.43655420  0.22589690    -0.75700
C256        C  0.11974125  0.43976289  0.25971178     0.85100
N257        N  0.10454258  0.45674072  0.29357891    -0.75600
C258        C  0.06663150  0.47125426  0.29452382     0.85200
N259        N  0.04315464  0.46831447  0.25995370    -0.77300
C260        C  0.46225529  0.22413247  0.03418921     0.82600
N261        N  0.44139623  0.22235599  0.06939419    -0.75700
C262        C  0.44034317  0.25431758  0.09466363     0.85100
N263        N  0.45996410  0.28871537  0.08526584    -0.75600
C264        C  0.48123061  0.29186248  0.05053050     0.85200
N265        N  0.48257856  0.25930229  0.02442218    -0.77300
C266        C  0.83294846  0.21934971  0.77767086     0.82600
N267        N  0.82344574  0.18667520  0.75507969    -0.75700
C268        C  0.78870021  0.16649548  0.76226185     0.85100
N269        N  0.76301288  0.17950857  0.79121246    -0.75600
C270        C  0.77251345  0.21225923  0.81377963     0.85200
N271        N  0.80730907  0.23252361  0.80675468    -0.77300
C272        C  0.96080293  0.43677398  0.72642916     0.82600
N273        N  0.97538475  0.44743888  0.76419370    -0.75700
C274        C  0.97823780  0.41868505  0.79446459     0.85100
N275        N  0.96646173  0.38050477  0.78656833    -0.75600
C276        C  0.95236166  0.37005184  0.74974241     0.85200
N277        N  0.94925308  0.39799936  0.71996320    -0.77300
C278        C  0.55086652  0.27560990  0.94343465     0.82600
N279        N  0.54036147  0.23984939  0.96246776    -0.75700
C280        C  0.56614471  0.20716132  0.96106180     0.85100
N281        N  0.60144195  0.21093922  0.94104551    -0.75600
C282        C  0.61168353  0.24592912  0.92263997     0.85200
N283        N  0.58660021  0.27795919  0.92380841    -0.77300
C284        C  0.72151811  0.04384486  0.54066083     0.82600
N285        N  0.72187261  0.05939843  0.57856053    -0.75700
C286        C  0.75540148  0.05787346  0.60150354     0.85100
N287        N  0.78933328  0.04104735  0.58695027    -0.75600
C288        C  0.79055763  0.02503044  0.54940516     0.85200
N289        N  0.75626528  0.02616052  0.52561407    -0.77300
C290        C  0.75019206  0.76525305  0.17126903     0.82600
N291        N  0.74261212  0.79831670  0.19411375    -0.75700
C292        C  0.76506073  0.80567013  0.22752658     0.85100
N293        N  0.79440852  0.77955856  0.23851368    -0.75600
C294        C  0.80178578  0.74652923  0.21559983     0.85200
N295        N  0.77945718  0.73915730  0.18215234    -0.77300
C296        C  0.72116765  0.94328497  0.44697067     0.82600
N297        N  0.75725050  0.96178903  0.45569505    -0.75700
C298        C  0.78742154  0.96239165  0.42702773     0.85100
N299        N  0.78117437  0.94468501  0.39071547    -0.75600
C300        C  0.74568579  0.92677432  0.38215353     0.85200
N301        N  0.71591525  0.92594308  0.41016294    -0.77300
C302        C  0.94871931  0.53620849  0.28594269     0.82600
N303        N  0.97275107  0.52846482  0.25268844    -0.75700
C304        C  0.97036809  0.55300078  0.21898774     0.85100
N305        N  0.94446600  0.58435608  0.21917241    -0.75600
C306        C  0.92112559  0.59192066  0.25179190     0.85200
N307        N  0.92324137  0.56805634  0.28496733    -0.77300
C308        C  0.53827482  0.71595646  0.02658239     0.82600
N309        N  0.52786360  0.75206620  0.00858011    -0.75700
C310        C  0.55451622  0.78407124  0.00933275     0.85100
N311        N  0.59044525  0.77930130  0.02787675    -0.75600
C312        C  0.60048413  0.74375484  0.04514636     0.85200
N313        N  0.57455878  0.71243490  0.04461923    -0.77300
C314        C  0.23145250  0.73409334  0.28932921     0.82600
N315        N  0.22401012  0.70096569  0.26654313    -0.75700
C316        C  0.24294561  0.69652221  0.23049394     0.85100
N317        N  0.26928120  0.72479934  0.21731881    -0.75600
C318        C  0.27638958  0.75787568  0.24013261     0.85200
N319        N  0.25765576  0.76252150  0.27627532    -0.77300
C320        C  0.45206176  0.93552187  0.27992581     0.82600
N321        N  0.46006216  0.96376614  0.24996494    -0.75700
C322        C  0.44318033  0.95913470  0.21194251     0.85100
N323        N  0.41939291  0.92692760  0.20470482    -0.75600
C324        C  0.41196094  0.89946449  0.23391342     0.85200
N325        N  0.42799974  0.90379364  0.27120964    -0.77300
C326        C  0.05897408  0.70163516  0.47884120     0.82600
N327        N  0.03256675  0.73376453  0.47822202    -0.75700
C328        C  0.04271403  0.76843104  0.45730620     0.85100
N329        N  0.07846060  0.77035620  0.43788463    -0.75600
C330        C  0.10420434  0.73900331  0.43885673     0.85200
N331        N  0.09443809  0.70482407  0.45890271    -0.77300
C332        C  0.28742396  0.52207028  0.04474003     0.82600
N333        N  0.25576708  0.52090134  0.01766104    -0.75700
C334        C  0.21984764  0.53954580  0.02725762     0.85100
N335        N  0.21644953  0.55864838  0.06322351    -0.75600
C336        C  0.24749994  0.55980367  0.08944855     0.85200
N337        N  0.28276771  0.54186958  0.08023535    -0.77300
O338        O  0.98837395  0.93498184  0.54530901    -0.77700
O339        O  0.01204335  0.06180223  0.53691369    -0.77800
O340        O  0.07898920  0.98173025  0.54057963    -0.77800
O341        O  0.93722592  0.00373438  0.53561491    -0.77700
O342        O  0.09583122  0.04506220  0.52536925    -0.77800
O343        O  0.91126085  0.94382500  0.51963266    -0.77700
O344        O  0.95395150  0.08670233  0.51611523    -0.77700
O345        O  0.04517841  0.90781513  0.53007514    -0.77800
C346        C  0.01109016  0.90383546  0.54575102     1.12000
C347        C  0.98862511  0.09318793  0.53158880     1.11800
C348        C  0.10531298  0.01056660  0.53983466     1.12000
C349        C  0.90577627  0.98001232  0.53209349     1.11900
O350        O  0.92917071  0.96752740  0.44465072    -0.77700
O351        O  0.08933620  0.01747738  0.45048820    -0.77800
O352        O  0.03922703  0.90454437  0.45880276    -0.77700
O353        O  0.98611545  0.07081645  0.44368534    -0.77700
O354        O  0.04622074  0.08528922  0.46525336    -0.77800
O355        O  0.97275310  0.90044720  0.46955230    -0.77700
O356        O  0.91588638  0.03022873  0.45983917    -0.77700
O357        O  0.10536927  0.95625937  0.46718015    -0.77800
Co358      Co  0.96173582  0.95549636  0.49402888     1.51500
Co359      Co  0.04844301  0.03247347  0.49427665     1.51700
Co360      Co  0.05158860  0.95362436  0.49232990     1.51600
Co361      Co  0.96753654  0.03609929  0.49032240     1.51500
O362        O  0.00594707  0.99127839  0.47238745    -1.39700
C363        C  0.90493079  0.99701347  0.44444749     1.11900
C364        C  0.11576509  0.98975229  0.45277264     1.12000
C365        C  0.00618677  0.88452572  0.45859724     1.11900
C366        C  0.01487407  0.09582489  0.44658461     1.11900
C367        C  0.01840878  0.80516978  0.45610488    -0.10900
C368        C  0.00867181  0.84069508  0.45361528    -0.12400
C369        C  0.24327676  0.58146770  0.12624673    -0.16100
C370        C  0.23937210  0.60316377  0.15488626     0.08000
C371        C  0.23640495  0.63277638  0.18475603     0.09800
C372        C  0.23714315  0.66105800  0.20718059    -0.16900
C373        C  0.21195202  0.73864799  0.32737043    -0.16100
C374        C  0.19310844  0.74097231  0.35817869     0.08000
C375        C  0.16674588  0.74164462  0.39115921     0.09800
C376        C  0.14001262  0.74079229  0.41543590    -0.16900
C377        C  0.30582100  0.78634838  0.22777993    -0.16100
C378        C  0.33169429  0.81079563  0.22203400     0.08000
C379        C  0.36159528  0.84031670  0.22159390     0.09800
C380        C  0.38571564  0.86675499  0.22578549    -0.16900
C381        C  0.82720331  0.97976083  0.43393736    -0.10900
C382        C  0.86251455  0.98989037  0.43558381    -0.12400
C383        C  0.72418445  0.75542470  0.13852966    -0.16100
C384        C  0.69927476  0.74768114  0.11356789     0.08000
C385        C  0.66696362  0.74163944  0.08716704     0.09800
C386        C  0.63729385  0.74048533  0.06672632    -0.16900
C387        C  0.89504287  0.62594653  0.25112926    -0.16100
C388        C  0.87457484  0.65540248  0.24700206     0.08000
C389        C  0.85119388  0.68948281  0.23848565     0.09800
C390        C  0.82995154  0.71703261  0.22881112    -0.16900
C391        C  0.75497037  0.83828437  0.25376462    -0.16100
C392        C  0.74747344  0.86271954  0.27951265     0.08000
C393        C  0.74178862  0.88775649  0.31327387     0.09800
C394        C  0.74098980  0.90665369  0.34427921    -0.16900
C395        C  0.82937479  0.00732670  0.53754923    -0.10900
C396        C  0.86427492  0.99517741  0.53607563    -0.12400
C397        C  0.77676968  0.13526771  0.73533007    -0.16100
C398        C  0.76767071  0.11286317  0.70843755     0.05000
C399        C  0.75956089  0.09103018  0.67316434     0.09800
C400        C  0.75570557  0.07504155  0.64091133    -0.16900
C401        C  0.74370094  0.22759324  0.84176680    -0.16100
C402        C  0.71598131  0.23813243  0.86252232     0.08000
C403        C  0.68068463  0.24620596  0.88427801     0.09800
C404        C  0.64919086  0.24858042  0.90189790    -0.16900
C405        C  0.93602127  0.33058458  0.74470138    -0.16100
C406        C  0.91822350  0.29921273  0.74767310     0.08000
C407        C  0.89272723  0.26675389  0.75708394     0.09800
C408        C  0.86718246  0.24310675  0.76699111    -0.16900
C409        C  0.41725837  0.25259643  0.13080100    -0.16100
C410        C  0.39696482  0.25468397  0.16063724     0.08000
C411        C  0.37214092  0.26075077  0.19423142     0.09800
C412        C  0.34971000  0.26795590  0.22161020    -0.16900
C413        C  0.24985759  0.35681498  0.27628867    -0.16100
C414        C  0.22478079  0.38226431  0.27139533     0.08000
C415        C  0.19084515  0.40634993  0.26498245     0.09800
C416        C  0.15915737  0.42305474  0.26087616    -0.16900
C417        C  0.15859940  0.99873708  0.44628318    -0.10900
C418        C  0.19332921  0.01128832  0.44716359    -0.12400
C419        C  0.26870071  0.22581022  0.33393943    -0.16100
C420        C  0.25930471  0.19799599  0.35496578     0.08000
C421        C  0.25247667  0.16384093  0.37862698     0.09800
C422        C  0.25154954  0.13389992  0.39870708    -0.16900
C423        C  0.99998581  0.42788563  0.87242177    -0.10900
C424        C  0.99156834  0.42671644  0.83617692    -0.12400
C425        C  0.99333127  0.54688277  0.18157199    -0.10900
C426        C  0.00561364  0.54648826  0.14653960    -0.12400
C427        C  0.02489885  0.44308746  0.15099059    -0.10900
C428        C  0.03678723  0.44655301  0.18630137    -0.12400
C429        C  0.18328406  0.53839767  0.00214705    -0.10900
C430        C  0.14828513  0.53866831  0.99002032    -0.12400
C431        C  0.85198959  0.45595708  0.01501086    -0.10900
C432        C  0.81685887  0.45994020  0.02564698    -0.12400
C433        C  0.00772863  0.13839013  0.43754469    -0.10900
C434        C  0.99415134  0.17265730  0.43772049    -0.12400
C435        C  0.66502230  0.21440740  0.24652844    -0.16100
C436        C  0.64229388  0.18754040  0.23842604     0.08000
C437        C  0.61833207  0.15355501  0.23142506     0.09800
C438        C  0.59895647  0.12317922  0.22873921    -0.16900
C439        C  0.73227971  0.34094927  0.22425991    -0.16100
C440        C  0.73631686  0.36984447  0.20281253     0.08000
C441        C  0.74124800  0.40051520  0.17412894     0.09800
C442        C  0.74474703  0.42337465  0.14624077    -0.16900
C443        C  0.78237369  0.24781157  0.32356173    -0.16100
C444        C  0.80847910  0.23951550  0.34698756     0.08000
C445        C  0.84070690  0.23292872  0.37327637     0.09800
C446        C  0.86967810  0.23127395  0.39461148    -0.16900
C447        C  0.01242781  0.53347383  0.82071411    -0.10900
C448        C  0.00239503  0.53032044  0.85643882    -0.12400
C449        C  0.18088734  0.98625222  0.54665096    -0.10900
C450        C  0.14720889  0.00060472  0.54690835    -0.12400
C451        C  0.13775106  0.72400196  0.75516382    -0.16100
C452        C  0.11103867  0.70081420  0.74778124     0.08000
C453        C  0.08498395  0.66847805  0.73980593     0.09800
C454        C  0.06739495  0.63703804  0.73637155    -0.16900
C455        C  0.23732200  0.81658796  0.70607580    -0.16100
C456        C  0.24647072  0.83705674  0.67756164     0.08000
C457        C  0.25294097  0.86074441  0.64302286     0.09800
C458        C  0.25470757  0.88232947  0.61393563    -0.16900
C459        C  0.25993025  0.74441075  0.83008924    -0.16100
C460        C  0.28526477  0.73793728  0.85496833     0.08000
C461        C  0.31846464  0.73498809  0.88062455     0.09800
C462        C  0.34926647  0.73652077  0.89922168    -0.16900
C463        C  0.54608761  0.82429196  0.99247731    -0.10900
C464        C  0.54440955  0.85975591  0.98161599    -0.12400
C465        C  0.44231542  0.81968182  0.97252229    -0.10900
C466        C  0.44482061  0.85424518  0.98524153    -0.12400
C467        C  0.55147690  0.00368298  0.16155354    -0.10900
C468        C  0.55175185  0.99034861  0.12679640    -0.12400
C469        C  0.45339572  0.99783387  0.14188599    -0.10900
C470        C  0.45052395  0.98556026  0.17691558    -0.12400
C471        C  0.46265218  0.18699924  0.00974504    -0.10900
C472        C  0.46107137  0.15181367  0.99797527    -0.12400
C473        C  0.55822528  0.16768884  0.98024792    -0.10900
C474        C  0.55692226  0.13286836  0.99329489    -0.12400
C475        C  0.00283828  0.13564238  0.53690408    -0.10900
C476        C  0.01438228  0.17121599  0.53875458    -0.12400
C477        C  0.44388427  0.01662729  0.80893933    -0.10900
C478        C  0.44582016  0.00769366  0.84487324    -0.12400
C479        C  0.15272506  0.44263540  0.01133380    -0.10900
C480        C  0.18618916  0.43583751  0.99736546    -0.12400
C481        C  0.15110810  0.23612789  0.72611425    -0.16100
C482        C  0.12613770  0.24493608  0.70148312     0.08000
C483        C  0.10084588  0.25144772  0.66816567     0.09800
C484        C  0.08237978  0.25328068  0.63703300    -0.16900
C485        C  0.35442532  0.08297538  0.71741358    -0.16100
C486        C  0.32410520  0.10242810  0.71960652     0.08000
C487        C  0.29180700  0.12794461  0.72911114     0.09800
C488        C  0.26726063  0.15166789  0.74102518    -0.16900
C489        C  0.25571037  0.33719435  0.91670642    -0.16100
C490        C  0.25267207  0.30747813  0.89613630     0.08000
C491        C  0.24609205  0.27628521  0.86816669     0.09800
C492        C  0.23814789  0.25337717  0.84115127    -0.16900
C493        C  0.83784616  0.55754402  0.96773307    -0.10900
C494        C  0.87337884  0.55656758  0.97793747    -0.12400
C495        C  0.98646121  0.82648798  0.55611462    -0.10900
C496        C  0.99657580  0.86226170  0.55369835    -0.12400
C497        C  0.74346179  0.65529995  0.92000104    -0.16100
C498        C  0.74410735  0.68795272  0.90417446     0.08000
C499        C  0.75105315  0.72266368  0.88072556     0.09800
C500        C  0.76037113  0.74830100  0.85668435    -0.16900
C501        C  0.84890021  0.77272913  0.74369517    -0.16100
C502        C  0.87308447  0.76251795  0.71861677     0.08000
C503        C  0.89783490  0.75259328  0.68552038     0.09800
C504        C  0.91663320  0.74760188  0.65478228    -0.16900
C505        C  0.54482467  0.98864617  0.81661867    -0.10900
C506        C  0.54462138  0.00099460  0.85186750    -0.12400
C507        C  0.64169320  0.91856844  0.73640333    -0.16100
C508        C  0.67300103  0.90125413  0.74089784     0.08000
C509        C  0.70680924  0.87841753  0.75161679     0.09800
C510        C  0.73265034  0.85616131  0.76345774    -0.16900
C511        C  0.51335107  0.36572857  0.04301564    -0.10900
C512        C  0.50087355  0.33087672  0.04332345    -0.12400
C513        C  0.52680272  0.31293244  0.94478435    -0.10900
C514        C  0.51502243  0.34812453  0.94481800    -0.12400
C515        C  0.67242795  0.49866283  0.04843403    -0.10900
C516        C  0.63701210  0.50755265  0.04486236    -0.12400
C517        C  0.65857203  0.50686801  0.94044724    -0.10900
C518        C  0.69295835  0.52045551  0.94107297    -0.12400
C519        C  0.50193870  0.64475972  0.02962340    -0.10900
C520        C  0.51292108  0.67991694  0.02733539    -0.12400
C521        C  0.47867154  0.68154418  0.92421581    -0.10900
C522        C  0.48939846  0.64652688  0.92282490    -0.12400
C523        C  0.32653418  0.50273644  0.03803093    -0.10900
C524        C  0.36148522  0.49101494  0.03767908    -0.12400
C525        C  0.32457336  0.46230745  0.94292624    -0.10900
C526        C  0.35832303  0.47672633  0.93856483    -0.12400
C527        C  0.05349615  0.48856743  0.33366151    -0.10900
C528        C  0.04991455  0.50034006  0.36896360    -0.12400
C529        C  0.95049270  0.51325208  0.32393143    -0.10900
C530        C  0.95026236  0.50113984  0.35905016    -0.12400
C531        C  0.05149346  0.49008294  0.64131642    -0.10900
C532        C  0.04904327  0.50603808  0.67490706    -0.12400
C533        C  0.95550644  0.48012567  0.65769221    -0.10900
C534        C  0.95748424  0.46478433  0.69169117    -0.12400
C535        C  0.04789603  0.31942887  0.51177021    -0.10900
C536        C  0.04909906  0.35444668  0.49862041    -0.12400
C537        C  0.95197830  0.34431679  0.49799106    -0.10900
C538        C  0.95111220  0.30990925  0.48445446    -0.12400
C539        C  0.95270410  0.64327863  0.51844686    -0.10900
C540        C  0.95360724  0.67847229  0.53098309    -0.12400
C541        C  0.05097450  0.66302367  0.49914403    -0.10900
C542        C  0.04979359  0.62851692  0.51264633    -0.12400
C543        C  0.50382824  0.04586803  0.63361756    -0.10900
C544        C  0.48556303  0.04665325  0.66595361    -0.12400
C545        C  0.50440667  0.94652483  0.63526443    -0.10900
C546        C  0.51596618  0.94868287  0.67074107    -0.12400
C547        C  0.36914552  0.05370664  0.49780961    -0.10900
C548        C  0.33429546  0.05371359  0.48540487    -0.12400
C549        C  0.32064813  0.95221598  0.50443839    -0.10900
C550        C  0.35452667  0.95612535  0.49045818    -0.12400
C551        C  0.50892341  0.03350031  0.34416096    -0.10900
C552        C  0.51797350  0.03384640  0.30801510    -0.12400
C553        C  0.47823992  0.93426367  0.35717119    -0.10900
C554        C  0.46796864  0.93723728  0.32150226    -0.12400
C555        C  0.64741807  0.04870247  0.50797474    -0.10900
C556        C  0.68276991  0.04618357  0.51895152    -0.12400
C557        C  0.65298333  0.94162914  0.48938518    -0.10900
C558        C  0.68680934  0.94261740  0.47475510    -0.12400
loop_ 
_geom_bond_atom_site_label_1 
_geom_bond_atom_site_label_2 
_geom_bond_distance 
_geom_bond_site_symmetry_2 
_ccdc_geom_bond_type 
O1            C9   1.272       .  A
O1          Co21   2.008   1_545  S
O2           C10   1.302       .  A
O2          Co22   2.078   1_545  S
O3           C11   1.270       .  A
O3          Co23   1.990   1_545  S
O4           C12   1.311       .  A
O4          Co24   2.093       .  S
O5           C11   1.277       .  A
O5          Co22   2.039   1_545  S
O6           C12   1.284       .  A
O6          Co21   1.922   1_545  S
O7           C10   1.273       .  A
O7          Co24   1.938       .  S
O8            C9   1.253       .  A
O8          Co23   1.993   1_545  S
C9          C555   1.478       .  S
C10         C547   1.475       .  S
C11         C551   1.474       .  S
C12         C543   1.470       .  S
O13          C26   1.267       .  A
O13         Co21   2.002       .  S
O14          C27   1.271       .  A
O14         Co22   1.993       .  S
O15          C28   1.279       .  A
O15         Co23   1.993       .  S
O16          C29   1.303       .  A
O16         Co24   2.115   1_565  S
O17          C29   1.273       .  A
O17         Co22   1.921       .  S
O18          C28   1.284       .  A
O18         Co21   2.038       .  S
O19          C26   1.263       .  A
O19         Co24   2.022   1_565  S
O20          C27   1.261       .  A
O20         Co23   2.000       .  S
Co21         O25   2.006       .  S
Co22         O25   2.086       .  S
Co23         O25   2.112       .  S
Co24         O25   2.142   1_545  S
C26         C545   1.483       .  S
C27         C553   1.473       .  S
C28         C557   1.463       .  S
C29         C550   1.464       .  S
O30          C38   1.274       .  A
O30         Co50   2.025   1_655  S
O31          C39   1.269       .  A
O31         Co51   2.011   1_655  S
O32          C40   1.271       .  A
O32         Co52   2.014   1_655  S
O33          C41   1.269       .  A
O33         Co53   2.013   1_655  S
O34          C40   1.267       .  A
O34         Co51   2.004   1_655  S
O35          C41   1.272       .  A
O35         Co50   2.027   1_655  S
O36          C39   1.268       .  A
O36         Co53   2.007   1_655  S
O37          C38   1.273       .  A
O37         Co52   2.028   1_655  S
C38         C539   1.488       .  S
C39         C537   1.466       .  S
C40         C530   1.468       .  S
C41         C533   1.480       .  S
O42          C55   1.300       .  A
O42         Co50   2.063       .  S
O43          C56   1.306       .  A
O43         Co51   2.080       .  S
O44          C57   1.303       .  A
O44         Co52   2.072       .  S
O45          C58   1.307       .  A
O45         Co53   2.083       .  S
O46          C58   1.278       .  A
O46         Co51   1.946       .  S
O47          C57   1.280       .  A
O47         Co50   1.935       .  S
O48          C55   1.280       .  A
O48         Co53   1.951       .  S
O49          C56   1.279       .  A
O49         Co52   1.939       .  S
Co50         O54   2.070   1_455  S
Co51         O54   2.070   1_455  S
Co52         O54   2.065   1_455  S
Co53         O54   2.085   1_455  S
C55         C531   1.479       .  S
C56         C528   1.485       .  S
C57         C542   1.473       .  S
C58         C536   1.492       .  S
O59          C67   1.295       .  A
O59         Co79   2.060   1_554  S
O60          C68   1.278       .  A
O60         Co80   2.025   1_554  S
O61          C69   1.311       .  A
O61         Co81   2.082   1_554  S
O62          C70   1.266       .  A
O62         Co82   2.001   1_554  S
O63          C69   1.283       .  A
O63         Co80   1.918   1_554  S
O64          C70   1.263       .  A
O64         Co79   1.998   1_554  S
O65          C68   1.250       .  A
O65         Co82   1.959   1_554  S
O66          C67   1.286       .  A
O66         Co81   1.947   1_554  S
C67         C524   1.466       .  S
C68         C516   1.457       .  S
C69         C511   1.470       .  S
C70         C519   1.460       .  S
O71          C84   1.283       .  A
O71         Co79   2.025       .  S
O72          C85   1.275       .  A
O72         Co80   2.022       .  S
O73          C86   1.270       .  A
O73         Co81   2.030       .  S
O74          C87   1.280       .  A
O74         Co82   1.994       .  S
O75          C87   1.289       .  A
O75         Co80   2.053       .  S
O76          C86   1.255       .  A
O76         Co79   1.984       .  S
O77          C84   1.268       .  A
O77         Co82   1.972       .  S
O78          C85   1.270       .  A
O78         Co81   2.014       .  S
Co79         O83   2.101       .  S
Co80         O83   2.003       .  S
Co81         O83   2.067       .  S
Co82         O83   2.025       .  S
C84         C522   1.449       .  S
C85         C514   1.476       .  S
C86         C526   1.469       .  S
C87         C517   1.470       .  S
C88         C505   1.477       .  S
C88          N89   1.386       .  A
C88          N93   1.350       .  A
N89          C90   1.387       .  A
C90         C546   1.481       .  S
C90          N91   1.356       .  A
N91          C92   1.352       .  A
C92         C507   1.425       .  S
C92          N93   1.349       .  A
C94         C510   1.426       .  S
C94          N95   1.355       .  A
C94          N99   1.354       .  A
N95          C96   1.355       .  A
C96         C500   1.428       .  S
C96          N97   1.356       .  A
N97          C98   1.355       .  A
C98         C501   1.429       .  S
C98          N99   1.355       .  A
C100        C495   1.479       .  S
C100        N101   1.387       .  A
C100        N105   1.349       .  A
N101        C102   1.388       .  A
C102        C540   1.487       .  S
C102        N103   1.358       .  A
N103        C104   1.355       .  A
C104        C504   1.428       .  S
C104        N105   1.349       .  A
C106        C493   1.472       .  S
C106        N107   1.382       .  A
C106        N111   1.351       .  A
N107        C108   1.383       .  A
C108        C518   1.471       .  S
C108        N109   1.357       .  A
N109        C110   1.353       .  A
C110        C497   1.428       .  S
C110        N111   1.351       .  A
C112        C488   1.428       .  S
C112        N113   1.356       .  A
C112        N117   1.353       .  A
N113        C114   1.356       .  A
C114        C492   1.427       .  S
C114        N115   1.356       .  A
N115        C116   1.354       .  A
C116        C481   1.426       .  S
C116        N117   1.354       .  A
C118        C525   1.469       .  S
C118        N119   1.354       .  A
C118        N123   1.377       .  A
N119        C120   1.354       .  A
C120        C489   1.427       .  S
C120        N121   1.354       .  A
N121        C122   1.354       .  A
C122        C480   1.466       .  S
C122        N123   1.377       .  A
C124        C477   1.464       .  S
C124        N125   1.351       .  A
C124        N129   1.377       .  A
N125        C126   1.351       .  A
C126        C485   1.427       .  S
C126        N127   1.354       .  A
N127        C128   1.357       .  A
C128        C544   1.468       .  S
C128        N129   1.378       .  A
C130        C535   1.488       .  S
C130        N131   1.355       .  A
C130        N135   1.389       .  A
N131        C132   1.353       .  A
C132        C484   1.426       .  S
C132        N133   1.352       .  A
N133        C134   1.352       .  A
C134        C476   1.489       .  S
C134        N135   1.389       .  A
O136        C144   1.305   1_565  A
O136       Co156   2.075       .  S
O137        C145   1.306   1_545  A
O137       Co157   2.081       .  S
O138        C146   1.305   1_556  A
O138       Co158   2.075       .  S
O139        C147   1.307       .  A
O139       Co159   2.089   1_556  S
O140        C146   1.280       .  A
O140       Co157   1.939       .  S
O141        C147   1.277       .  A
O141       Co156   1.929       .  S
O142        C145   1.277       .  A
O142       Co159   1.934       .  S
O143        C144   1.278       .  A
O143       Co158   1.938       .  S
C144        C506   1.483       .  S
C145        C468   1.476       .  S
C146        C474   1.480   1_554  S
C147        C464   1.477       .  S
O148        C161   1.266       .  A
O148       Co156   2.005       .  S
O149        C162   1.272   1_554  A
O149       Co157   2.025       .  S
O150        C163   1.269       .  A
O150       Co158   2.012       .  S
O151        C164   1.273   1_565  A
O151       Co159   2.024       .  S
O152        C164   1.267       .  A
O152       Co157   2.008       .  S
O153        C163   1.264   1_565  A
O153       Co156   1.998       .  S
O154        C161   1.265   1_554  A
O154       Co159   2.005       .  S
O155        C162   1.267       .  A
O155       Co158   2.010       .  S
Co156       O160   2.064   1_565  S
Co157       O160   2.069   1_554  S
Co158       O160   2.068       .  S
Co159       O160   2.077   1_564  S
C161        C466   1.463       .  S
C162        C472   1.475       .  S
C163        C478   1.463       .  S
C164        C469   1.473   1_545  S
C165        C459   1.421       .  S
C165        N166   1.355       .  A
C165        N170   1.355       .  A
N166        C167   1.352       .  A
C167        C455   1.423       .  S
C167        N168   1.354       .  A
N168        C169   1.353       .  A
C169        C451   1.425       .  S
C169        N170   1.355       .  A
C171        C465   1.462       .  S
C171        N172   1.377       .  A
C171        N176   1.353       .  A
N172        C173   1.376       .  A
C173        C521   1.449       .  S
C173        N174   1.348       .  A
N174        C175   1.346       .  A
C175        C462   1.418       .  S
C175        N176   1.352       .  A
C177        C449   1.455       .  S
C177        N178   1.351       .  A
C177        N182   1.373       .  A
N178        C179   1.351       .  A
C179        C458   1.422       .  S
C179        N180   1.353       .  A
N180        C181   1.354       .  A
C181        C549   1.462       .  S
C181        N182   1.374       .  A
C183        C447   1.470       .  S
C183        N184   1.381       .  A
C183        N188   1.351       .  A
N184        C185   1.382       .  A
C185        C532   1.476       .  S
C185        N186   1.358       .  A
N186        C187   1.355       .  A
C187        C454   1.426       .  S
C187        N188   1.350       .  A
C189        C439   1.421       .  S
C189        N190   1.355       .  A
C189        N194   1.354       .  A
N190        C191   1.353       .  A
C191        C443   1.422       .  S
C191        N192   1.351       .  A
N192        C193   1.354       .  A
C193        C435   1.421       .  S
C193        N194   1.353       .  A
C195        C434   1.462       .  S
C195        N196   1.377       .  A
C195        N200   1.353       .  A
N196        C197   1.377       .  A
C197        C538   1.466       .  S
C197        N198   1.352       .  A
N198        C199   1.351       .  A
C199        C446   1.420       .  S
C199        N200   1.350       .  A
C201        C432   1.467       .  S
C201        N202   1.381       .  A
C201        N206   1.354       .  A
N202        C203   1.381       .  A
C203        C515   1.455       .  S
C203        N204   1.348       .  A
N204        C205   1.346       .  A
C205        C442   1.419       .  S
C205        N206   1.351       .  A
C207        C467   1.472       .  S
C207        N208   1.354       .  A
C207        N212   1.384       .  A
N208        C209   1.351       .  A
C209        C438   1.421       .  S
C209        N210   1.349       .  A
N210        C211   1.350       .  A
C211        C552   1.471       .  S
C211        N212   1.383       .  A
O213        C221   1.265       .  A
O213       Co233   1.992       .  S
O214        C222   1.305   1_554  A
O214       Co234   2.096       .  S
O215        C223   1.267   1_655  A
O215       Co235   1.980       .  S
O216        C224   1.318   1_455  A
O216       Co236   2.119       .  S
O217        C223   1.272       .  A
O217       Co234   2.030       .  S
O218        C224   1.282       .  A
O218       Co233   1.905       .  S
O219        C222   1.272       .  A
O219       Co236   1.936       .  S
O220        C221   1.253   1_554  A
O220       Co235   1.997       .  S
C221        C494   1.473       .  S
C222        C430   1.479       .  S
C223        C426   1.467       .  S
C224        C448   1.473   1_655  S
O225        C238   1.266   1_655  A
O225       Co233   1.988       .  S
O226        C239   1.277       .  A
O226       Co234   2.012       .  S
O227        C240   1.281       .  A
O227       Co235   1.999       .  S
O228        C241   1.303   1_556  A
O228       Co236   2.117       .  S
O229        C241   1.273       .  A
O229       Co234   1.921       .  S
O230        C240   1.285   1_556  A
O230       Co233   2.042       .  S
O231        C238   1.260       .  A
O231       Co236   2.007       .  S
O232        C239   1.266   1_655  A
O232       Co235   2.015       .  S
Co233       O237   1.988   1_556  S
Co234       O237   2.093   1_455  S
Co235       O237   2.117       .  S
Co236       O237   2.146   1_456  S
C238        C423   1.473   1_455  S
C239        C427   1.484       .  S
C240        C431   1.468       .  S
C241        C479   1.466       .  S
C242        C418   1.467       .  S
C242        N243   1.350       .  A
C242        N247   1.383       .  A
N243        C244   1.347       .  A
C244        C422   1.415       .  S
C244        N245   1.350       .  A
N245        C246   1.351       .  A
C246        C548   1.472       .  S
C246        N247   1.382       .  A
C248        C419   1.417       .  S
C248        N249   1.351       .  A
C248        N253   1.353       .  A
N249        C250   1.353       .  A
C250        C413   1.421       .  S
C250        N251   1.354       .  A
N251        C252   1.353       .  A
C252        C412   1.420       .  S
C252        N253   1.351       .  A
C254        C428   1.484       .  S
C254        N255   1.356       .  A
C254        N259   1.388       .  A
N255        C256   1.354       .  A
C256        C416   1.424       .  S
C256        N257   1.349       .  A
N257        C258   1.350       .  A
C258        C527   1.479       .  S
C258        N259   1.387       .  A
C260        C471   1.472       .  S
C260        N261   1.353       .  A
C260        N265   1.384       .  A
N261        C262   1.349       .  A
C262        C409   1.418       .  S
C262        N263   1.348       .  A
N263        C264   1.349       .  A
C264        C512   1.466       .  S
C264        N265   1.382       .  A
C266        C408   1.426       .  S
C266        N267   1.353       .  A
C266        N271   1.355       .  A
N267        C268   1.354       .  A
C268        C397   1.421       .  S
C268        N269   1.352       .  A
N269        C270   1.354       .  A
C270        C401   1.424       .  S
C270        N271   1.356       .  A
C272        C534   1.479       .  S
C272        N273   1.384       .  A
C272        N277   1.358       .  A
N273        C274   1.383       .  A
C274        C424   1.471       .  S
C274        N275   1.350       .  A
N275        C276   1.349       .  A
C276        C405   1.425       .  S
C276        N277   1.354       .  A
C278        C513   1.475       .  S
C278        N279   1.385       .  A
C278        N283   1.354       .  A
N279        C280   1.384       .  A
C280        C473   1.476       .  S
C280        N281   1.351       .  A
N281        C282   1.351       .  A
C282        C404   1.424       .  S
C282        N283   1.352       .  A
C284        C556   1.478       .  S
C284        N285   1.353       .  A
C284        N289   1.388       .  A
N285        C286   1.350       .  A
C286        C400   1.420       .  S
C286        N287   1.347       .  A
N287        C288   1.349       .  A
C288        C395   1.471       .  S
C288        N289   1.386       .  A
C290        C383   1.423       .  S
C290        N291   1.355       .  A
C290        N295   1.352       .  A
N291        C292   1.355       .  A
C292        C391   1.426       .  S
C292        N293   1.355       .  A
N293        C294   1.354       .  A
C294        C390   1.424       .  S
C294        N295   1.354       .  A
C296        C558   1.463       .  S
C296        N297   1.377       .  A
C296        N301   1.356       .  A
N297        C298   1.377       .  A
C298        C381   1.460       .  S
C298        N299   1.351       .  A
N299        C300   1.350       .  A
C300        C394   1.426       .  S
C300        N301   1.353       .  A
C302        C529   1.467       .  S
C302        N303   1.381       .  A
C302        N307   1.355       .  A
N303        C304   1.380       .  A
C304        C425   1.465       .  S
C304        N305   1.351       .  A
N305        C306   1.350       .  A
C306        C387   1.424       .  S
C306        N307   1.352       .  A
C308        C520   1.461       .  S
C308        N309   1.381       .  A
C308        N313   1.352       .  A
N309        C310   1.381       .  A
C310        C463   1.472   1_554  S
C310        N311   1.353       .  A
N311        C312   1.351       .  A
C312        C386   1.422       .  S
C312        N313   1.348       .  A
C314        C373   1.420       .  S
C314        N315   1.354       .  A
C314        N319   1.351       .  A
N315        C316   1.353       .  A
C316        C372   1.419       .  S
C316        N317   1.352       .  A
N317        C318   1.351       .  A
C318        C377   1.417       .  S
C318        N319   1.353       .  A
C320        C554   1.473       .  S
C320        N321   1.386       .  A
C320        N325   1.352       .  A
N321        C322   1.384       .  A
C322        C470   1.469       .  S
C322        N323   1.349       .  A
N323        C324   1.347       .  A
C324        C380   1.416       .  S
C324        N325   1.350       .  A
C326        C541   1.467       .  S
C326        N327   1.382       .  A
C326        N331   1.353       .  A
N327        C328   1.381       .  A
C328        C367   1.463       .  S
C328        N329   1.350       .  A
N329        C330   1.348       .  A
C330        C376   1.419       .  S
C330        N331   1.350       .  A
C332        C523   1.467       .  S
C332        N333   1.383       .  A
C332        N337   1.352       .  A
N333        C334   1.382       .  A
C334        C429   1.473       .  S
C334        N335   1.350       .  A
N335        C336   1.349       .  A
C336        C369   1.418       .  S
C336        N337   1.350       .  A
O338        C346   1.280   1_655  A
O338       Co358   2.029       .  S
O339        C347   1.313   1_455  A
O339       Co359   2.095       .  S
O340        C348   1.295   1_565  A
O340       Co360   2.059       .  S
O341        C349   1.312   1_545  A
O341       Co361   2.094       .  S
O342        C348   1.279       .  A
O342       Co359   1.927       .  S
O343        C349   1.282       .  A
O343       Co358   1.916       .  S
O344        C347   1.280       .  A
O344       Co361   1.935       .  S
O345        C346   1.251       .  A
O345       Co360   1.974       .  S
C346        C496   1.482   1_455  S
C347        C475   1.494   1_655  S
C348        C450   1.452       .  S
C349        C396   1.475       .  S
O350        C363   1.268       .  A
O350       Co358   1.999       .  S
O351        C364   1.275   1_545  A
O351       Co359   2.044       .  S
O352        C365   1.282       .  A
O352       Co360   2.011       .  S
O353        C366   1.268   1_655  A
O353       Co361   2.016       .  S
O354        C366   1.262       .  A
O354       Co359   1.996       .  S
O355        C365   1.283   1_655  A
O355       Co358   2.030       .  S
O356        C363   1.266   1_545  A
O356       Co361   2.001       .  S
O357        C364   1.255       .  A
O357       Co360   1.971       .  S
Co358       O362   2.016   1_655  S
Co359       O362   2.093   1_545  S
Co360       O362   2.075       .  S
Co361       O362   2.048   1_645  S
C363        C382   1.460       .  S
C364        C417   1.470       .  S
C365        C368   1.465       .  S
C366        C433   1.462       .  S
C367        C368   1.224       .  T
C369        C370   1.195       .  T
C370        C371   1.395       .  S
C371        C372   1.195       .  T
C373        C374   1.196       .  T
C374        C375   1.396       .  S
C375        C376   1.195       .  T
C377        C378   1.195       .  T
C378        C379   1.393       .  S
C379        C380   1.195       .  T
C381        C382   1.222       .  T
C383        C384   1.197       .  T
C384        C385   1.399       .  S
C385        C386   1.197       .  T
C387        C388   1.199       .  T
C388        C389   1.401       .  S
C389        C390   1.199       .  T
C391        C392   1.201       .  T
C392        C393   1.403       .  S
C393        C394   1.201       .  T
C395        C396   1.230   1_545  T
C397        C398   1.197       .  T
C398        C399   1.398       .  S
C399        C400   1.197       .  T
C401        C402   1.200       .  T
C402        C403   1.401       .  S
C403        C404   1.199       .  T
C405        C406   1.199       .  T
C406        C407   1.402       .  S
C407        C408   1.199       .  T
C409        C410   1.194       .  T
C410        C411   1.396       .  S
C411        C412   1.195       .  T
C413        C414   1.198       .  T
C414        C415   1.400       .  S
C415        C416   1.199       .  T
C417        C418   1.227   1_565  T
C419        C420   1.194       .  T
C420        C421   1.392       .  S
C421        C422   1.193       .  T
C423        C424   1.230       .  T
C425        C426   1.225   1_655  T
C427        C428   1.237       .  T
C429        C430   1.231   1_554  T
C431        C432   1.226       .  T
C433        C434   1.223   1_455  T
C435        C436   1.198       .  T
C436        C437   1.398       .  S
C437        C438   1.198       .  T
C439        C440   1.197       .  T
C440        C441   1.397       .  S
C441        C442   1.197       .  T
C443        C444   1.196       .  T
C444        C445   1.398       .  S
C445        C446   1.196       .  T
C447        C448   1.229       .  T
C449        C450   1.218   1_565  T
C451        C452   1.199       .  T
C452        C453   1.402       .  S
C453        C454   1.199       .  T
C455        C456   1.198       .  T
C456        C457   1.399       .  S
C457        C458   1.198       .  T
C459        C460   1.197       .  T
C460        C461   1.396       .  S
C461        C462   1.196       .  T
C463        C464   1.230       .  T
C465        C466   1.223       .  T
C467        C468   1.230   1_545  T
C469        C470   1.229       .  T
C471        C472   1.231   1_554  T
C473        C474   1.232       .  T
C475        C476   1.241       .  T
C477        C478   1.224       .  T
C479        C480   1.225   1_554  T
C481        C482   1.200       .  T
C482        C483   1.403       .  S
C483        C484   1.200       .  T
C485        C486   1.200       .  T
C486        C487   1.403       .  S
C487        C488   1.200       .  T
C489        C490   1.201       .  T
C490        C491   1.404       .  S
C491        C492   1.201       .  T
C493        C494   1.230       .  T
C495        C496   1.234       .  T
C497        C498   1.201       .  T
C498        C499   1.404       .  S
C499        C500   1.202       .  T
C501        C502   1.202       .  T
C502        C503   1.406       .  S
C503        C504   1.202       .  T
C505        C506   1.234   1_565  T
C507        C508   1.199       .  T
C508        C509   1.402       .  S
C509        C510   1.199       .  T
C511        C512   1.227       .  T
C513        C514   1.231       .  T
C515        C516   1.220       .  T
C517        C518   1.228       .  T
C519        C520   1.223       .  T
C521        C522   1.216       .  T
C523        C524   1.226       .  T
C525        C526   1.227       .  T
C527        C528   1.235       .  T
C529        C530   1.226       .  T
C531        C532   1.231       .  T
C533        C534   1.233       .  T
C535        C536   1.239       .  T
C537        C538   1.226       .  T
C539        C540   1.238       .  T
C541        C542   1.227       .  T
C543        C544   1.227       .  T
C545        C546   1.235       .  T
C547        C548   1.230       .  T
C549        C550   1.223       .  T
C551        C552   1.230       .  T
C553        C554   1.230       .  T
C555        C556   1.234       .  T
C557        C558   1.223       .  T
