geometry optimzed in LAMMPS
_audit_creation_date              2020-11-30 
_audit_creation_method            'lammps2cif' 
_symmetry_space_group_name_H-M    'P1' 
_symmetry_Int_Tables_number       1 
_symmetry_cell_setting            triclinic 
loop_ 
_symmetry_equiv_pos_as_xyz 
  x,y,z 
_cell_length_a                    35.32094967 
_cell_length_b                    82.49216914132951 
_cell_length_c                    50.71480350172124 
_cell_angle_alpha                 90.04110823118741 
_cell_angle_beta                  113.50517507282129 
_cell_angle_gamma                 89.94252720852485 
loop_ 
_atom_site_label 
_atom_site_type_symbol 
_atom_site_fract_x 
_atom_site_fract_y 
_atom_site_fract_z 
_atom_site_charge 
N1          N  0.70963672  0.33513436  0.13240205    -0.27000
N2          N  0.70993654  0.33295098  0.10665622    -0.34800
C3          C  0.68737058  0.34459205  0.08882229     0.01400
C4          C  0.67251756  0.35491464  0.10399524     0.07400
C5          C  0.68681268  0.34839533  0.13152886    -0.05700
H6          H  0.68282536  0.34555552  0.06648226     0.08100
H7          H  0.68212213  0.35324801  0.14982056     0.09300
Cu8        Cu  0.74444385  0.31564779  0.09676031     0.44200
Cu9        Cu  0.74250842  0.32033350  0.16763141     0.42000
Cu10       Cu  0.81390224  0.29242551  0.15437709     0.43900
N11         N  0.78777125  0.30034565  0.09231894    -0.34300
N12         N  0.81411814  0.29184509  0.11385869    -0.28600
C13         C  0.84014406  0.28394646  0.10491141    -0.04700
C14         C  0.82979824  0.28781519  0.07630515     0.07500
C15         C  0.79625228  0.29815338  0.06902467     0.01300
H16         H  0.86500368  0.27616984  0.11839488     0.09000
H17         H  0.78023439  0.30417520  0.04862289     0.08000
N18         N  0.80711135  0.29418541  0.19276662    -0.35800
N19         N  0.78098562  0.30388663  0.19787802    -0.28000
C20         C  0.78387709  0.30106703  0.22480086    -0.03200
C21         C  0.81360792  0.28915741  0.23723026     0.05400
C22         C  0.82736592  0.28511907  0.21609737     0.03500
H23         H  0.76494383  0.30697210  0.23425891     0.08600
H24         H  0.85030246  0.27610576  0.21738803     0.07400
N25         N  0.97994938  0.31905159  0.90684090    -0.27000
N26         N  0.99067943  0.31906426  0.93497634    -0.34800
C27         C  0.00986609  0.33304045  0.94601527     0.01400
C28         C  0.01125430  0.34237019  0.92381834     0.07400
C29         C  0.99245882  0.33306137  0.89928173    -0.05700
H30         H  0.02098321  0.33632760  0.96851135     0.08100
H31         H  0.98661075  0.33652940  0.87742516     0.09300
Cu32       Cu  0.97466855  0.30130041  0.95722721     0.44200
Cu33       Cu  0.94480151  0.30071333  0.88005856     0.42000
Cu34       Cu  0.90901217  0.26968647  0.91618210     0.43900
N35         N  0.94438478  0.28563050  0.97385694    -0.34300
N36         N  0.91945795  0.27407571  0.95853569    -0.28600
C37         C  0.89780338  0.26827825  0.97304607    -0.04700
C38         C  0.90954089  0.27671063  0.99868473     0.07500
C39         C  0.93950209  0.28745922  0.99861216     0.01300
H40         H  0.87300692  0.25955286  0.96447944     0.09000
H41         H  0.95338045  0.29708256  0.01394557     0.08000
N42         N  0.89351556  0.27035938  0.87246680    -0.35800
N43         N  0.90568153  0.28168264  0.85911918    -0.28000
C44         C  0.88660830  0.27927215  0.83058341    -0.03200
C45         C  0.86096200  0.26589661  0.82584177     0.05400
C46         C  0.86656912  0.26047577  0.85290107     0.03500
H47         H  0.89055508  0.28689563  0.81451995     0.08600
H48         H  0.85077954  0.25051154  0.85801273     0.07400
N49         N  0.63703720  0.18611298  0.63006564    -0.27000
N50         N  0.62370734  0.18799535  0.60190353    -0.34800
C51         C  0.60567737  0.17422755  0.58878194     0.01400
C52         C  0.60778678  0.16304147  0.60958274     0.07400
C53         C  0.62742186  0.17104307  0.63554085    -0.05700
H54         H  0.59226124  0.17248464  0.56571228     0.08100
H55         H  0.63514139  0.16613043  0.65683967     0.09300
Cu56       Cu  0.63320424  0.20840063  0.58180400     0.44200
Cu57       Cu  0.67038158  0.20374657  0.65958432     0.42000
Cu58       Cu  0.69348157  0.23961327  0.62666129     0.43900
N59         N  0.65816080  0.22696383  0.56668031    -0.34300
N60         N  0.68093005  0.23854786  0.58347680    -0.28600
C61         C  0.70224661  0.24599923  0.57021279    -0.04700
C62         C  0.69273937  0.23865580  0.54379107     0.07500
C63         C  0.66421606  0.22675726  0.54219455     0.01300
H64         H  0.72725593  0.25440901  0.58075691     0.09000
H65         H  0.65298313  0.21727693  0.52619920     0.08000
N66         N  0.71505399  0.23580962  0.67030075    -0.35800
N67         N  0.70708153  0.22290677  0.68264376    -0.28000
C68         C  0.72836726  0.22409496  0.71128463    -0.03200
C69         C  0.75137184  0.23830730  0.71710079     0.05400
C70         C  0.74172565  0.24541063  0.69052050     0.03500
H71         H  0.72720770  0.21520209  0.72659382     0.08600
H72         H  0.75413510  0.25654677  0.68599419     0.07400
N73         N  0.95237041  0.20266519  0.44069136    -0.27000
N74         N  0.94546545  0.20116534  0.46433317    -0.34800
C75         C  0.96238724  0.18730221  0.47765032     0.01400
C76         C  0.98089045  0.17948874  0.46171203     0.07400
C77         C  0.97390635  0.18963473  0.43834951    -0.05700
H78         H  0.95976406  0.18290958  0.49693304     0.08100
H79         H  0.98171400  0.18728986  0.42010571     0.09300
Cu80       Cu  0.90754257  0.21623495  0.47547630     0.44200
Cu81       Cu  0.92752350  0.22156079  0.41148032     0.42000
Cu82       Cu  0.85539478  0.24804197  0.42716877     0.43900
N83         N  0.86072715  0.22971240  0.47928235    -0.34300
N84         N  0.84168924  0.24166108  0.46165575    -0.28600
C85         C  0.81015925  0.24693919  0.46786417    -0.04700
C86         C  0.80901962  0.23764615  0.49019490     0.07500
C87         C  0.84169461  0.22693231  0.49705793     0.01300
H88         H  0.78813025  0.25609899  0.45580854     0.09000
H89         H  0.84997897  0.21736053  0.51295878     0.08000
N90         N  0.86787553  0.24982724  0.39086619    -0.35800
N91         N  0.89396542  0.24044947  0.38506094    -0.28000
C92         C  0.89256833  0.24446824  0.35897580    -0.03200
C93         C  0.86360931  0.25673512  0.34759642     0.05400
C94         C  0.84904478  0.25989434  0.36866352     0.03500
H95         H  0.91100275  0.23869844  0.34898608     0.08600
H96         H  0.82535682  0.26850720  0.36758534     0.07400
N97         N  0.99423782  0.97448430  0.52330355    -0.27000
N98         N  0.95966211  0.98305035  0.51452893    -0.34800
C99         C  0.96760096  0.99821200  0.50830469     0.01400
C100        C  0.00899435  0.99918091  0.51325326     0.07400
C101        C  0.02487432  0.98393598  0.52270172    -0.05700
H102        H  0.94481021  0.00775782  0.50049753     0.08100
H103        H  0.05643165  0.97997567  0.52879578     0.09300
Cu104      Cu  0.90260727  0.97385637  0.51029543     0.44200
Cu105      Cu  0.99972556  0.95029905  0.53581468     0.42000
Cu106      Cu  0.90412568  0.93075348  0.52269859     0.43900
N107        N  0.85023928  0.96064603  0.50593700    -0.34300
N108        N  0.85123428  0.94476658  0.50965151    -0.28600
C109        C  0.81332262  0.93952630  0.50543607    -0.04700
C110        C  0.78702325  0.95270805  0.49896911     0.07500
C111        C  0.81140087  0.96595839  0.49946693     0.01300
H112        H  0.80581391  0.92704597  0.50779308     0.09000
H113        H  0.80176369  0.97849900  0.49564524     0.08000
N114        N  0.96024102  0.91884356  0.53995838    -0.35800
N115        N  0.99598763  0.92604457  0.54553746    -0.28000
C116        C  0.02657097  0.91513204  0.55718312    -0.03200
C117        C  0.00903153  0.90034165  0.55895751     0.05400
C118        C  0.96692768  0.90319200  0.54769041     0.03500
H119        H  0.05897956  0.91769360  0.56321134     0.08600
H120        H  0.94283224  0.89452427  0.54539599     0.07400
N121        N  0.54324717  0.96841468  0.49366814    -0.27000
N122        N  0.57450944  0.97800735  0.49606688    -0.34800
C123        C  0.56609031  0.99310755  0.50225104     0.01400
C124        C  0.52780116  0.99302564  0.50376379     0.07400
C125        C  0.51417019  0.97719272  0.49812103    -0.05700
H126        H  0.58678399  0.00331585  0.50599363     0.08100
H127        H  0.48583454  0.97227308  0.49817320     0.09300
Cu128      Cu  0.62887167  0.97036208  0.49275803     0.44200
Cu129      Cu  0.54188590  0.94353779  0.48685584     0.42000
Cu130      Cu  0.63565614  0.92715481  0.48734303     0.43900
N131        N  0.68066127  0.95869986  0.49156434    -0.34300
N132        N  0.68247148  0.94275281  0.48984423    -0.28600
C133        C  0.71986817  0.93842473  0.49135835    -0.04700
C134        C  0.74306970  0.95226794  0.49418011     0.07500
C135        C  0.71725721  0.96497719  0.49411718     0.01300
H136        H  0.72971442  0.92601759  0.49116594     0.09000
H137        H  0.72499915  0.97772853  0.49686376     0.08000
N138        N  0.58620223  0.91294641  0.48437140    -0.35800
N139        N  0.55101480  0.91887487  0.48350388    -0.28000
C140        C  0.52471738  0.90653684  0.48048216    -0.03200
C141        C  0.54458935  0.89208997  0.47978805     0.05400
C142        C  0.58350380  0.89674027  0.48217997     0.03500
H143        H  0.49316563  0.90808577  0.47831662     0.08600
H144        H  0.60818704  0.88894462  0.48225930     0.07400
N145        N  0.49692036  0.03040115  0.52793013    -0.27000
N146        N  0.46292420  0.02174966  0.52185506    -0.34800
C147        C  0.46835785  0.00712443  0.51197391     0.01400
C148        C  0.50748332  0.00666014  0.51175513     0.07400
C149        C  0.52457123  0.02162079  0.52193939    -0.05700
H150        H  0.44561277  0.99753205  0.50557493     0.08100
H151        H  0.55523248  0.02574399  0.52536950     0.09300
Cu152      Cu  0.41060112  0.03035138  0.52713506     0.44200
Cu153      Cu  0.50653687  0.05344754  0.54557377     0.42000
Cu154      Cu  0.42330393  0.07082391  0.55814142     0.43900
N155        N  0.36307908  0.04343885  0.53210298    -0.34300
N156        N  0.36814918  0.05832621  0.54267270    -0.28600
C157        C  0.33175597  0.06409987  0.54106140    -0.04700
C158        C  0.30220995  0.05228351  0.52920880     0.07500
C159        C  0.32305369  0.03927203  0.52388369     0.01300
H160        H  0.32717011  0.07610646  0.54788827     0.09000
H161        H  0.30986297  0.02787267  0.51386970     0.08000
N162        N  0.47977155  0.08212769  0.57005951    -0.35800
N163        N  0.51056498  0.07583031  0.56497892    -0.28000
C164        C  0.54207210  0.08642751  0.57337197    -0.03200
C165        C  0.53059888  0.10002633  0.58450336     0.05400
C166        C  0.49075716  0.09687685  0.58187973     0.03500
H167        H  0.57082321  0.08452090  0.57094905     0.08600
H168        H  0.47047612  0.10499920  0.58689722     0.07400
N169        N  0.04884810  0.03830104  0.50252832    -0.27000
N170        N  0.08142939  0.02893978  0.50754335    -0.34800
C171        C  0.07208032  0.01365331  0.51188832     0.01400
C172        C  0.03165683  0.01332995  0.50938530     0.07400
C173        C  0.01778324  0.02915099  0.50337194    -0.05700
H174        H  0.09335208  0.00355963  0.51678066     0.08100
H175        H  0.98765980  0.03374483  0.50038795     0.09300
Cu176      Cu  0.13798024  0.03717017  0.50951426     0.44200
Cu177      Cu  0.04878490  0.06322295  0.49620735     0.42000
Cu178      Cu  0.14808211  0.08052869  0.50693090     0.43900
N179        N  0.19268098  0.04852471  0.51425367    -0.34300
N180        N  0.19663302  0.06446657  0.51450401    -0.28600
C181        C  0.23605207  0.06815318  0.51978627    -0.04700
C182        C  0.25785483  0.05385645  0.52266419     0.07500
C183        C  0.22940404  0.04162989  0.51892987     0.01300
H184        H  0.24788505  0.08036318  0.52122827     0.09000
H185        H  0.23515981  0.02870785  0.52026203     0.08000
N186        N  0.09453977  0.09413955  0.49641864    -0.35800
N187        N  0.05821837  0.08784201  0.49230816    -0.28000
C188        C  0.03000544  0.09980800  0.48542723    -0.03200
C189        C  0.04947376  0.11440784  0.48536934     0.05400
C190        C  0.09036943  0.11025994  0.49225246     0.03500
H191        H  0.99752010  0.09790708  0.48038658     0.08600
H192        H  0.11540265  0.11837957  0.49431546     0.07400
N193        N  0.18360750  0.69405699  0.10524581    -0.27000
N194        N  0.18004541  0.69808866  0.07910437    -0.34800
C195        C  0.15737256  0.68682766  0.06033468     0.01400
C196        C  0.14659002  0.67503202  0.07534800     0.07400
C197        C  0.16368431  0.67996318  0.10377751    -0.05700
H198        H  0.15023231  0.68698549  0.03750868     0.08100
H199        H  0.16150402  0.67385896  0.12200584     0.09300
Cu200      Cu  0.20898950  0.71767803  0.06962545     0.44200
Cu201      Cu  0.21488538  0.70793972  0.14167082     0.42000
Cu202      Cu  0.27046515  0.74189806  0.12946619     0.43900
N203        N  0.24991270  0.73499372  0.06733668    -0.34300
N204        N  0.27324342  0.74366996  0.08982708    -0.28600
C205        C  0.30149605  0.75174339  0.08348300    -0.04700
C206        C  0.29554085  0.74806535  0.05551814     0.07500
C207        C  0.26250485  0.73741813  0.04588465     0.01300
H208        H  0.32623626  0.75889214  0.09872331     0.09000
H209        H  0.25101728  0.73078631  0.02580269     0.08000
N210        N  0.26770371  0.73698791  0.16842339    -0.35800
N211        N  0.24762814  0.72460589  0.17324479    -0.28000
C212        C  0.25351392  0.72469407  0.20114929    -0.03200
C213        C  0.27845801  0.73779268  0.21437383     0.05400
C214        C  0.28698065  0.74522360  0.19296883     0.03500
H215        H  0.24158216  0.71561852  0.21120383     0.08600
H216        H  0.30625459  0.75574423  0.19511675     0.07400
N217        N  0.49688701  0.71121836  0.92148580    -0.27000
N218        N  0.50515504  0.71169436  0.94929254    -0.34800
C219        C  0.52350514  0.69777901  0.96152385     0.01400
C220        C  0.52653212  0.68792737  0.94039711     0.07400
C221        C  0.50956811  0.69687017  0.91525161    -0.05700
H222        H  0.53221748  0.69474465  0.98393886     0.08100
H223        H  0.50604209  0.69314368  0.89392908     0.09300
Cu224      Cu  0.48570561  0.72994541  0.96885557     0.44200
Cu225      Cu  0.46590481  0.72967935  0.89330005     0.42000
Cu226      Cu  0.42689296  0.76230335  0.92371373     0.43900
N227        N  0.45082682  0.74603651  0.98100153    -0.34300
N228        N  0.42914299  0.75792953  0.96439456    -0.28600
C229        C  0.40329163  0.76395981  0.97546650    -0.04700
C230        C  0.40888091  0.75542696  0.00025517     0.07500
C231        C  0.43938043  0.74418141  0.00309009     0.01300
H232        H  0.37960316  0.77286472  0.96482975     0.09000
H233        H  0.44921912  0.73422832  0.01821160     0.08000
N234        N  0.41589889  0.76060313  0.88063797    -0.35800
N235        N  0.42963513  0.74864309  0.86947097    -0.28000
C236        C  0.41130317  0.74957862  0.84065947    -0.03200
C237        C  0.38455644  0.76271605  0.83327050     0.05400
C238        C  0.38842548  0.76940747  0.85925692     0.03500
H239        H  0.41488604  0.74063421  0.82622245     0.08600
H240        H  0.36969350  0.77897389  0.86247506     0.07400
N241        N  0.44509597  0.80514894  0.43492250    -0.27000
N242        N  0.44069379  0.80541518  0.45959483    -0.34800
C243        C  0.46007789  0.81848972  0.47474159     0.01400
C244        C  0.47774292  0.82691301  0.45893522     0.07400
C245        C  0.46756123  0.81807831  0.43376281    -0.05700
H246        H  0.45960829  0.82200277  0.49515113     0.08100
H247        H  0.47366635  0.82135859  0.41516407     0.09300
Cu248      Cu  0.40321083  0.78967538  0.46984657     0.44200
Cu249      Cu  0.41553350  0.78844092  0.40261249     0.42000
Cu250      Cu  0.34301131  0.76141054  0.41564330     0.43900
N251        N  0.35698255  0.77558434  0.47309649    -0.34300
N252        N  0.33419129  0.76537546  0.45297034    -0.28600
C253        C  0.30464551  0.75918601  0.46042680    -0.04700
C254        C  0.30908123  0.76590741  0.48651360     0.07500
C255        C  0.34275325  0.77614377  0.49396806     0.01300
H256        H  0.28137150  0.75064046  0.44757508     0.09000
H257        H  0.35497287  0.78395468  0.51262993     0.08000
N258        N  0.35438738  0.76112525  0.37876672    -0.35800
N259        N  0.37983276  0.77113139  0.37362101    -0.28000
C260        C  0.37694287  0.76861403  0.34669526    -0.03200
C261        C  0.34874826  0.75624597  0.33439494     0.05400
C262        C  0.33503593  0.75188537  0.35545010     0.03500
H263        H  0.39287156  0.77581028  0.33649677     0.08600
H264        H  0.31174979  0.74296874  0.35375978     0.07400
N265        N  0.12606484  0.81782044  0.62217756    -0.27000
N266        N  0.11489361  0.81392118  0.59479363    -0.34800
C267        C  0.09144256  0.82583347  0.57823389     0.01400
C268        C  0.08731810  0.83786608  0.59587852     0.07400
C269        C  0.10996298  0.83243990  0.62364412    -0.05700
H270        H  0.07972356  0.82599743  0.55500519     0.08100
H271        H  0.11482849  0.83875350  0.64344915     0.09300
Cu272      Cu  0.13535415  0.79376867  0.58010990     0.44200
Cu273      Cu  0.16451170  0.80342192  0.65617520     0.42000
Cu274      Cu  0.20022865  0.76684489  0.63281552     0.43900
N275        N  0.16914922  0.77588300  0.57089369    -0.34300
N276        N  0.19301970  0.76570083  0.59055898    -0.28600
C277        C  0.21782374  0.75796513  0.58034776    -0.04700
C278        C  0.20971470  0.76381324  0.55304355     0.07500
C279        C  0.17813942  0.77494907  0.54758561     0.01300
H280        H  0.24272469  0.74996940  0.59302721     0.09000
H281        H  0.16618852  0.78316556  0.52948818     0.08000
N282        N  0.21696086  0.77332393  0.67517898    -0.35800
N283        N  0.20480167  0.78659335  0.68419056    -0.28000
C284        C  0.22520599  0.78759901  0.71297202    -0.03200
C285        C  0.25138258  0.77429439  0.72241399     0.05400
C286        C  0.24543663  0.76568854  0.69766696     0.03500
H287        H  0.22224222  0.79756016  0.72589199     0.08600
H288        H  0.26237815  0.75513438  0.69571903     0.07400
N289        N  0.03723223  0.54343646  0.99298881    -0.27000
N290        N  0.00406954  0.53434203  0.98735226    -0.34800
C291        C  0.01245537  0.51918827  0.98132085     0.01400
C292        C  0.05274953  0.51882491  0.98334823     0.07400
C293        C  0.06745424  0.53437909  0.99079841    -0.05700
H294        H  0.99080076  0.50921890  0.97580041     0.08100
H295        H  0.09778673  0.53887324  0.99416300     0.09300
Cu296      Cu  0.94880565  0.54306421  0.98770266     0.44200
Cu297      Cu  0.04105923  0.56784196  0.00269483     0.42000
Cu298      Cu  0.94811933  0.58704554  0.99580443     0.43900
N299        N  0.89863522  0.55612143  0.98842659    -0.34300
N300        N  0.89883529  0.57210255  0.99067393    -0.28600
C301        C  0.86255597  0.57707058  0.99039538    -0.04700
C302        C  0.83810495  0.56364832  0.98794216     0.07500
C303        C  0.86186374  0.55050640  0.98676042     0.01300
H304        H  0.85483766  0.58960161  0.99220610     0.09000
H305        H  0.85309125  0.53785588  0.98474102     0.08000
N306        N  0.00292966  0.59953436  0.00712310    -0.35800
N307        N  0.03783221  0.59224645  0.01048491    -0.28000
C308        C  0.06889502  0.60297810  0.02066114    -0.03200
C309        C  0.05262811  0.61779682  0.02362508     0.05400
C310        C  0.01068428  0.61516386  0.01489774     0.03500
H311        H  0.10104348  0.60011322  0.02612193     0.08600
H312        H  0.98783954  0.62373500  0.01553084     0.07400
N313        N  0.59342260  0.54683616  0.98042029    -0.27000
N314        N  0.62650679  0.53766311  0.98585328    -0.34800
C315        C  0.61892350  0.52271461  0.99311369     0.01400
C316        C  0.57929921  0.52241383  0.99221703     0.07400
C317        C  0.56396802  0.53788310  0.98402891    -0.05700
H318        H  0.64097671  0.51286468  0.99905364     0.08100
H319        H  0.53399448  0.54242561  0.98152354     0.09300
Cu320      Cu  0.68206010  0.54543115  0.98498251     0.44200
Cu321      Cu  0.58978031  0.57144667  0.97038310     0.42000
Cu322      Cu  0.68730688  0.58831665  0.97960669     0.43900
N323        N  0.73433410  0.55721312  0.98540097    -0.34300
N324        N  0.73575252  0.57317344  0.98405378    -0.28600
C325        C  0.77261546  0.57768593  0.98487370    -0.04700
C326        C  0.79579859  0.56392696  0.98673957     0.07500
C327        C  0.77064663  0.55108349  0.98702794     0.01300
H328        H  0.78156473  0.59012502  0.98378269     0.09000
H329        H  0.77813495  0.53830710  0.98835394     0.08000
N330        N  0.63514061  0.60215324  0.97041949    -0.35800
N331        N  0.59844238  0.59609568  0.96584462    -0.28000
C332        C  0.57095270  0.60835038  0.95941955    -0.03200
C333        C  0.59177293  0.62274035  0.96045540     0.05400
C334        C  0.63229354  0.61831297  0.96735792     0.03500
H335        H  0.53852988  0.60694802  0.95499461     0.08600
H336        H  0.65787095  0.62624084  0.96976033     0.07400
N337        N  0.09155356  0.48058835  0.96816890    -0.27000
N338        N  0.12511511  0.48964103  0.97559288    -0.34800
C339        C  0.11636356  0.50463574  0.98198372     0.01400
C340        C  0.07543171  0.50498480  0.97845837     0.07400
C341        C  0.06064523  0.48954852  0.96968218    -0.05700
H342        H  0.13833867  0.51448546  0.98898011     0.08100
H343        H  0.02980610  0.48510166  0.96487379     0.09300
Cu344      Cu  0.18187099  0.48113564  0.97789833     0.44200
Cu345      Cu  0.08893272  0.45640354  0.95682629     0.42000
Cu346      Cu  0.18461129  0.43827376  0.96315497     0.43900
N347        N  0.23529369  0.46883016  0.98172193    -0.34300
N348        N  0.23614549  0.45305018  0.97736245    -0.28600
C349        C  0.27515925  0.44846708  0.98318913    -0.04700
C350        C  0.30007538  0.46202038  0.99124421     0.07500
C351        C  0.27386216  0.47475951  0.98999645     0.01300
H352        H  0.28457563  0.43617286  0.98139616     0.09000
H353        H  0.28229930  0.48731534  0.99532871     0.08000
N354        N  0.12942402  0.42573420  0.94922832    -0.35800
N355        N  0.09434112  0.43236586  0.94725847    -0.28000
C356        C  0.06487694  0.42091769  0.93958968    -0.03200
C357        C  0.08217267  0.40639750  0.93628481     0.05400
C358        C  0.12320174  0.40989915  0.94266251     0.03500
H359        H  0.03344828  0.42293247  0.93730094     0.08600
H360        H  0.14721440  0.40142649  0.94380339     0.07400
N361        N  0.54714410  0.48457534  0.01396437    -0.27000
N362        N  0.51261440  0.49304141  0.00652929    -0.34800
C363        C  0.51860098  0.50784429  0.99766790     0.01400
C364        C  0.55877384  0.50866398  0.99958289     0.07400
C365        C  0.57591774  0.49371183  0.00999178    -0.05700
H366        H  0.49533246  0.51723286  0.99016510     0.08100
H367        H  0.60702735  0.48972728  0.01438317     0.09300
Cu368      Cu  0.45862864  0.48373607  0.00776583     0.44200
Cu369      Cu  0.55418667  0.46094731  0.02908219     0.42000
Cu370      Cu  0.46382184  0.44112414  0.02870537     0.43900
N371        N  0.40829029  0.47044739  0.00719668    -0.34300
N372        N  0.41010801  0.45484124  0.01362548    -0.28600
C373        C  0.37201438  0.44956730  0.00904456    -0.04700
C374        C  0.34499691  0.46248042  0.99964673     0.07500
C375        C  0.36897405  0.47555770  0.99881226     0.01300
H376        H  0.36459517  0.43722335  0.01239996     0.09000
H377        H  0.35846058  0.48774922  0.99177672     0.08000
N378        N  0.52153109  0.43021625  0.04415923    -0.35800
N379        N  0.55468807  0.43752402  0.04398709    -0.28000
C380        C  0.58704717  0.42736908  0.05465773    -0.03200
C381        C  0.57378221  0.41298248  0.06220803     0.05400
C382        C  0.53195007  0.41521576  0.05512346     0.03500
H383        H  0.61797409  0.43025337  0.05675136     0.08600
H384        H  0.51042343  0.40646953  0.05708486     0.07400
C385        C  0.30231349  0.76312129  0.53291593    -0.11900
C386        C  0.28296399  0.76360279  0.50283517     0.05100
C387        C  0.23943803  0.76271179  0.48935487    -0.07200
C388        C  0.21638531  0.76194899  0.50631502    -0.08000
C389        C  0.23572036  0.76231667  0.53643469    -0.02500
C390        C  0.27932487  0.76265703  0.54983953     0.04300
N391        N  0.30082080  0.76384272  0.58041550     0.66800
H392        H  0.33568784  0.76375539  0.54345800     0.15700
H393        H  0.18296366  0.76179214  0.49587028     0.15400
N394        N  0.21798019  0.76375737  0.45873898     0.74500
O395        O  0.32940473  0.75394883  0.59360389    -0.38900
O396        O  0.29630137  0.77628263  0.59338322    -0.38900
O397        O  0.18946347  0.75383557  0.44562062    -0.39600
O398        O  0.22294190  0.77598093  0.44549849    -0.39700
C399        C  0.57897876  0.66783929  0.96877765    -0.11900
C400        C  0.54294204  0.67119683  0.94444941     0.05100
C401        C  0.52308028  0.65849732  0.92516212    -0.07200
C402        C  0.53922539  0.64272060  0.93098179    -0.08000
C403        C  0.57492050  0.63937565  0.95556803    -0.02500
C404        C  0.59516234  0.65212980  0.97450033     0.04300
N405        N  0.63130076  0.64923985  0.00014278     0.66800
H406        H  0.59451071  0.67749884  0.98368457     0.15700
H407        H  0.52375738  0.63299529  0.91621893     0.15400
N408        N  0.48584284  0.66124669  0.90024257     0.74500
O409        O  0.66316120  0.65779630  0.00564394    -0.38900
O410        O  0.63005301  0.63930149  0.01869200    -0.38900
O411        O  0.48284586  0.65625051  0.87595692    -0.39600
O412        O  0.45438770  0.66694156  0.90292939    -0.39700
C413        C  0.33239933  0.75302246  0.78670462    -0.11900
C414        C  0.35148289  0.76613848  0.80466815     0.05100
C415        C  0.33607434  0.78195382  0.79608040    -0.07200
C416        C  0.30217755  0.78422914  0.76980977    -0.08000
C417        C  0.28343497  0.77109820  0.75163341    -0.02500
C418        C  0.29824047  0.75523104  0.76071137     0.04300
N419        N  0.27781293  0.74116250  0.74468008     0.66800
H420        H  0.34276530  0.74075924  0.79359824     0.15700
H421        H  0.29169029  0.79648896  0.76299894     0.15400
N422        N  0.35551704  0.79586089  0.81306347     0.74500
O423        O  0.29873927  0.72932780  0.74204215    -0.38900
O424        O  0.23923057  0.73964042  0.73646151    -0.38900
O425        O  0.39402075  0.79782916  0.82163024    -0.39600
O426        O  0.33380952  0.80702459  0.81695353    -0.39700
C427        C  0.11260747  0.63118689  0.06134612    -0.11900
C428        C  0.07592579  0.63264130  0.03660500     0.05100
C429        C  0.06180139  0.64820510  0.02531272    -0.07200
C430        C  0.08514771  0.66187591  0.03863267    -0.08000
C431        C  0.12209919  0.66036127  0.06308115    -0.02500
C432        C  0.13558272  0.64487849  0.07473245     0.04300
N433        N  0.17342178  0.64280082  0.09934767     0.66800
H434        H  0.12352278  0.61932228  0.07040002     0.15700
H435        H  0.07466182  0.67378005  0.02958552     0.15400
N436        N  0.02488054  0.65032008  0.99982659     0.74500
O437        O  0.17272345  0.63797021  0.12275226    -0.38900
O438        O  0.20734472  0.64345889  0.09658591    -0.38900
O439        O  0.99927730  0.66122177  0.99891473    -0.39600
O440        O  0.02014407  0.64265490  0.97717416    -0.39700
C441        C  0.33702889  0.74735562  0.25787593    -0.11900
C442        C  0.29577039  0.74224431  0.24515759     0.05100
C443        C  0.27261372  0.74104013  0.26220873    -0.07200
C444        C  0.29118679  0.74507229  0.29145094    -0.08000
C445        C  0.33234111  0.75045334  0.30416414    -0.02500
C446        C  0.35583019  0.75115454  0.28719859     0.04300
N447        N  0.39911792  0.75487052  0.29951333     0.66800
H448        H  0.35538808  0.74778434  0.24511530     0.15700
H449        H  0.27246476  0.74472964  0.30393637     0.15400
N450        N  0.22972125  0.73668610  0.24996624     0.74500
O451        O  0.42288622  0.74756657  0.32186985    -0.38900
O452        O  0.41450241  0.76364825  0.28593047    -0.38900
O453        O  0.21552500  0.72719358  0.26329877    -0.39600
O454        O  0.20504120  0.74390178  0.22782856    -0.39700
C455        C  0.36683149  0.74986099  0.05785937    -0.11900
C456        C  0.32426755  0.75149881  0.04164456     0.05100
C457        C  0.30989769  0.75522501  0.01215807    -0.07200
C458        C  0.33821481  0.75701990  0.99938999    -0.08000
C459        C  0.38083888  0.75516264  0.01547761    -0.02500
C460        C  0.39528041  0.75163966  0.04515831     0.04300
N461        N  0.43851287  0.74986047  0.06268807     0.66800
H462        H  0.37806887  0.74687905  0.08052265     0.15700
H463        H  0.32660376  0.75953379  0.97654647     0.15400
N464        N  0.26675790  0.75735005  0.99499554     0.74500
O465        O  0.46393024  0.76035701  0.06175618    -0.38900
O466        O  0.45089917  0.73863759  0.08109129    -0.38900
O467        O  0.24647031  0.76796756  0.00176691    -0.39600
O468        O  0.24973617  0.74965029  0.97170618    -0.39700
C469        C  0.54343238  0.86391020  0.46182558    -0.11900
C470        C  0.52792692  0.87529924  0.47564902     0.05100
C471        C  0.49671368  0.87039761  0.48477465    -0.07200
C472        C  0.48127743  0.85455576  0.47924547    -0.08000
C473        C  0.49679320  0.84322239  0.46542332    -0.02500
C474        C  0.52874973  0.84793547  0.45700216     0.04300
N475        N  0.54762307  0.83656820  0.44452067     0.66800
H476        H  0.56751161  0.86738913  0.45476178     0.15700
H477        H  0.45677597  0.85108979  0.48590734     0.15400
N478        N  0.48127802  0.88106193  0.50051132     0.74500
O479        O  0.55567397  0.84067806  0.42334042    -0.38900
O480        O  0.56089538  0.82317582  0.45676890    -0.38900
O481        O  0.44284355  0.88249446  0.49328530    -0.39600
O482        O  0.50575527  0.88715707  0.52394767    -0.39700
C483        C  0.01083832  0.87045892  0.55385872    -0.11900
C484        C  0.02973654  0.88451805  0.56895476     0.05100
C485        C  0.06758063  0.88311126  0.59309279    -0.07200
C486        C  0.08540480  0.86777048  0.60175374    -0.08000
C487        C  0.06628863  0.85369811  0.58676680    -0.02500
C488        C  0.02851614  0.85511357  0.56246529     0.04300
N489        N  0.00699561  0.84112501  0.54679434     0.66800
H490        H  0.98185663  0.87138043  0.53525582     0.15700
H491        H  0.11450171  0.86686803  0.62026537     0.15400
N492        N  0.08761594  0.89701955  0.60962652     0.74500
O493        O  0.99947339  0.82938000  0.55990399    -0.38900
O494        O  0.99125585  0.84128857  0.51964934    -0.38900
O495        O  0.07050134  0.90487920  0.62322834    -0.39600
O496        O  0.12436511  0.90026394  0.61348157    -0.39700
C497        C  0.04705185  0.14221055  0.46532009    -0.11900
C498        C  0.03108308  0.13092383  0.47896492     0.05100
C499        C  0.99795371  0.13568442  0.48617442    -0.07200
C500        C  0.98209139  0.15143407  0.47993804    -0.08000
C501        C  0.99871221  0.16286523  0.46699998    -0.02500
C502        C  0.03147864  0.15807987  0.45940837     0.04300
N503        N  0.05035886  0.16926627  0.44675087     0.66800
H504        H  0.07233158  0.13874171  0.45944355     0.15700
H505        H  0.95657939  0.15477839  0.48564098     0.15400
N506        N  0.98116868  0.12499844  0.50098067     0.74500
O507        O  0.06627477  0.18219416  0.45976494    -0.38900
O508        O  0.05571433  0.16532504  0.42442491    -0.38900
O509        O  0.00354743  0.12013747  0.52597225    -0.39600
O510        O  0.94279557  0.12235751  0.49094849    -0.39700
C511        C  0.57034212  0.14050407  0.62103713    -0.11900
C512        C  0.59170105  0.14626462  0.60483074     0.05100
C513        C  0.59515745  0.13627201  0.58323560    -0.07200
C514        C  0.57581817  0.12109300  0.57760862    -0.08000
C515        C  0.55347592  0.11548940  0.59326241    -0.02500
C516        C  0.55137919  0.12521245  0.61563380     0.04300
N517        N  0.53089526  0.11966910  0.63335603     0.66800
H518        H  0.56794179  0.14804630  0.63782147     0.15700
H519        H  0.57787357  0.11369585  0.56055313     0.15400
N520        N  0.61884665  0.14116285  0.56727272     0.74500
O521        O  0.53842647  0.10572170  0.64448853    -0.38900
O522        O  0.50887222  0.12930961  0.64052959    -0.38900
O523        O  0.65547387  0.14607880  0.58031620    -0.39600
O524        O  0.60501952  0.13880569  0.54047231    -0.39700
C525        C  0.73023466  0.22417359  0.51878673    -0.11900
C526        C  0.71900762  0.23899450  0.52725825     0.05100
C527        C  0.73670090  0.25350486  0.52260733    -0.07200
C528        C  0.76546087  0.25279928  0.50992753    -0.08000
C529        C  0.77702206  0.23792432  0.50194807    -0.02500
C530        C  0.75879544  0.22348742  0.50613423     0.04300
N531        N  0.76832427  0.20807446  0.49720008     0.66800
H532        H  0.71742526  0.21290568  0.52254169     0.15700
H533        H  0.77930977  0.26392482  0.50660775     0.15400
N534        N  0.72587509  0.26896372  0.53060160     0.74500
O535        O  0.77753804  0.19618616  0.51428044    -0.38900
O536        O  0.76290083  0.20583763  0.47131430    -0.38900
O537        O  0.75354621  0.27935617  0.54290514    -0.39600
O538        O  0.68844379  0.27274495  0.52343931    -0.39700
C539        C  0.03711820  0.38630677  0.94568382    -0.11900
C540        C  0.06250131  0.39024530  0.93129012     0.05100
C541        C  0.07007928  0.37847371  0.91370437    -0.07200
C542        C  0.05236394  0.36301592  0.91116425    -0.08000
C543        C  0.02732558  0.35905946  0.92582721    -0.02500
C544        C  0.01944595  0.37090954  0.94313219     0.04300
N545        N  0.99281692  0.36766845  0.95768391     0.66800
H546        H  0.03119267  0.39524085  0.95926927     0.15700
H547        H  0.05842325  0.35397834  0.89779920     0.15400
N548        N  0.09484296  0.38208945  0.89788138     0.74500
O549        O  0.00418301  0.37126185  0.98392577    -0.38900
O550        O  0.95628072  0.36292004  0.94364747    -0.38900
O551        O  0.12101979  0.37192406  0.89694547    -0.39600
O552        O  0.08777534  0.39467139  0.88249510    -0.39700
C553        C  0.78429896  0.26187876  0.74824401    -0.11900
C554        C  0.78001309  0.24496085  0.74519350     0.05100
C555        C  0.80252995  0.23500023  0.76901420    -0.07200
C556        C  0.82776811  0.24217228  0.79523492    -0.08000
C557        C  0.83220344  0.25906921  0.79809673    -0.02500
C558        C  0.80976440  0.26902435  0.77434892     0.04300
N559        N  0.81053383  0.28635942  0.77673316     0.66800
H560        H  0.76650300  0.26972042  0.73048244     0.15700
H561        H  0.84545744  0.23443150  0.81321102     0.15400
N562        N  0.80223120  0.21768022  0.76663118     0.74500
O563        O  0.81390865  0.29497588  0.75722434    -0.38900
O564        O  0.80226814  0.29307326  0.79618648    -0.38900
O565        O  0.81214154  0.21107136  0.74783101    -0.39600
O566        O  0.79822422  0.20900896  0.78585614    -0.39700
C567        C  0.61783902  0.37410065  0.10382091    -0.11900
C568        C  0.64790149  0.36995383  0.09337029     0.05100
C569        C  0.65325882  0.38011259  0.07259940    -0.07200
C570        C  0.62855095  0.39394299  0.06283166    -0.08000
C571        C  0.59880598  0.39815063  0.07345316    -0.02500
C572        C  0.59346108  0.38807629  0.09422183     0.04300
N573        N  0.56472100  0.39217806  0.10664280     0.66800
H574        H  0.61336046  0.36646757  0.11973823     0.15700
H575        H  0.63295778  0.40157401  0.04688157     0.15400
N576        N  0.68461003  0.37702843  0.06198232     0.74500
O577        O  0.53889336  0.38180992  0.10735989    -0.38900
O578        O  0.56822962  0.40544498  0.11982763    -0.38900
O579        O  0.67590382  0.37774306  0.03532475    -0.39600
O580        O  0.72192344  0.37591494  0.07930133    -0.39700
C581        C  0.83722374  0.28099944  0.31634569    -0.11900
C582        C  0.84996593  0.26470744  0.31902221     0.05100
C583        C  0.85006746  0.25655069  0.29454402    -0.07200
C584        C  0.83884084  0.26493393  0.26851537    -0.08000
C585        C  0.82646587  0.28126616  0.26584607    -0.02500
C586        C  0.82589451  0.28939197  0.29023385     0.04300
N587        N  0.81613201  0.30630759  0.28942194     0.66800
H588        H  0.83760906  0.28751000  0.33501508     0.15700
H589        H  0.83825568  0.25833926  0.24987849     0.15400
N590        N  0.85910316  0.23957274  0.29513946     0.74500
O591        O  0.79214177  0.31129087  0.30063444    -0.38900
O592        O  0.83579521  0.31648414  0.28119839    -0.38900
O593        O  0.83872481  0.22951491  0.30297086    -0.39600
O594        O  0.88312782  0.23445244  0.28405789    -0.39700
C595        C  0.82677322  0.28062894  0.02812924    -0.11900
C596        C  0.85085447  0.28305586  0.05746908     0.05100
C597        C  0.89428175  0.28176972  0.06765693    -0.07200
C598        C  0.91254612  0.27886074  0.04814721    -0.08000
C599        C  0.88849488  0.27734921  0.01861801    -0.02500
C600        C  0.84504140  0.27793120  0.00861139     0.04300
N601        N  0.81908786  0.27714523  0.97858739     0.66800
H602        H  0.79341211  0.28147621  0.02006018     0.15700
H603        H  0.94594504  0.27847999  0.05597137     0.15400
N604        N  0.92046706  0.28454120  0.09722278     0.74500
O605        O  0.79062016  0.26673037  0.96952927    -0.38900
O606        O  0.82027352  0.28837144  0.96203376    -0.38900
O607        O  0.94739102  0.27414730  0.11088445    -0.39600
O608        O  0.92110918  0.29830900  0.10826889    -0.39700
loop_ 
_geom_bond_atom_site_label_1 
_geom_bond_atom_site_label_2 
_geom_bond_distance 
_geom_bond_site_symmetry_2 
_ccdc_geom_bond_type 
N1            N2   1.322       .  A
N1            C5   1.348       .  A
N1           Cu9   2.092       .  S
N2            C3   1.342       .  A
N2           Cu8   2.064       .  S
C3            C4   1.383       .  A
C3            H6   1.082       .  S
C4            C5   1.390       .  A
C4          C568   1.487       .  S
C5            H7   1.082       .  S
Cu8          N11   2.063       .  S
Cu9          N19   2.092       .  S
Cu10         N12   2.058       .  S
Cu10         N18   2.059       .  S
N11          N12   1.319       .  A
N11          C15   1.342       .  A
N12          C13   1.344       .  A
C13          C14   1.385       .  A
C13          H16   1.082       .  S
C14          C15   1.385       .  A
C14         C596   1.478       .  S
C15          H17   1.082       .  S
N18          N19   1.322       .  A
N18          C22   1.340       .  A
N19          C20   1.348       .  A
C20          C21   1.391       .  A
C20          H23   1.081       .  S
C21          C22   1.382       .  A
C21         C585   1.487       .  S
C22          H24   1.082       .  S
N25          N26   1.322       .  A
N25          C29   1.347       .  A
N25         Cu33   2.081       .  S
N26          C27   1.342   1_655  A
N26         Cu32   2.062       .  S
C27          C28   1.381       .  A
C27          H30   1.082       .  S
C28          C29   1.385   1_455  A
C28         C543   1.478       .  S
C29          H31   1.082       .  S
Cu32         N35   2.062       .  S
Cu33         N43   2.082       .  S
Cu34         N36   2.061       .  S
Cu34         N42   2.062       .  S
N35          N36   1.320       .  A
N35          C39   1.342       .  A
N36          C37   1.344       .  A
C37          C38   1.384       .  A
C37          H40   1.082       .  S
C38          C39   1.382       .  A
C38         C599   1.475   1_556  S
C39          H41   1.082   1_556  S
N42          N43   1.323       .  A
N42          C46   1.342       .  A
N43          C44   1.345       .  A
C44          C45   1.387       .  A
C44          H47   1.082       .  S
C45          C46   1.381       .  A
C45         C557   1.479       .  S
C46          H48   1.082       .  S
N49          N50   1.323       .  A
N49          C53   1.347       .  A
N49         Cu57   2.083       .  S
N50          C51   1.342       .  A
N50         Cu56   2.064       .  S
C51          C52   1.381       .  A
C51          H54   1.082       .  S
C52          C53   1.386       .  A
C52         C512   1.479       .  S
C53          H55   1.082       .  S
Cu56         N59   2.063       .  S
Cu57         N67   2.083       .  S
Cu58         N60   2.056       .  S
Cu58         N66   2.057       .  S
N59          N60   1.319       .  A
N59          C63   1.342       .  A
N60          C61   1.343       .  A
C61          C62   1.384       .  A
C61          H64   1.082       .  S
C62          C63   1.386       .  A
C62         C526   1.478       .  S
C63          H65   1.082       .  S
N66          N67   1.321       .  A
N66          C70   1.340       .  A
N67          C68   1.347       .  A
C68          C69   1.390       .  A
C68          H71   1.081       .  S
C69          C70   1.382       .  A
C69         C554   1.485       .  S
C70          H72   1.082       .  S
N73          N74   1.321       .  A
N73          C77   1.348       .  A
N73         Cu81   2.088       .  S
N74          C75   1.341       .  A
N74         Cu80   2.064       .  S
C75          C76   1.384       .  A
C75          H78   1.081       .  S
C76          C77   1.390       .  A
C76         C501   1.488       .  S
C77          H79   1.083       .  S
Cu80         N83   2.064       .  S
Cu81         N91   2.088       .  S
Cu82         N84   2.061       .  S
Cu82         N90   2.062       .  S
N83          N84   1.320       .  A
N83          C87   1.342       .  A
N84          C85   1.344       .  A
C85          C86   1.382       .  A
C85          H88   1.082       .  S
C86          C87   1.383       .  A
C86         C529   1.473       .  S
C87          H89   1.082       .  S
N90          N91   1.322       .  A
N90          C94   1.343       .  A
N91          C92   1.346       .  A
C92          C93   1.390       .  A
C92          H95   1.081       .  S
C93          C94   1.383       .  A
C93         C582   1.486       .  S
C94          H96   1.082       .  S
N97          N98   1.324       .  A
N97         C101   1.345   1_655  A
N97        Cu105   2.079       .  S
N98          C99   1.347       .  A
N98        Cu104   2.083       .  S
C99         C100   1.384   1_655  A
C99         H102   1.082   1_565  S
C100        C101   1.382       .  A
C100        C172   1.473   1_565  S
C101        H103   1.081       .  S
Cu104       N107   2.082       .  S
Cu105       N115   2.078       .  S
Cu106       N108   2.068       .  S
Cu106       N114   2.067       .  S
N107        N108   1.322       .  A
N107        C111   1.350       .  A
N108        C109   1.341       .  A
C109        C110   1.381       .  A
C109        H112   1.082       .  S
C110        C111   1.386       .  A
C110        C134   1.473       .  S
C111        H113   1.082       .  S
N114        N115   1.320       .  A
N114        C118   1.343       .  A
N115        C116   1.348   1_655  A
C116        C117   1.388       .  A
C116        H119   1.082       .  S
C117        C118   1.384   1_455  A
C117        C484   1.483       .  S
C118        H120   1.082       .  S
N121        N122   1.325       .  A
N121        C125   1.347       .  A
N121       Cu129   2.078       .  S
N122        C123   1.346       .  A
N122       Cu128   2.090       .  S
C123        C124   1.385       .  A
C123        H126   1.082   1_565  S
C124        C125   1.382       .  A
C124        C148   1.474   1_565  S
C125        H127   1.081       .  S
Cu128       N131   2.088       .  S
Cu129       N139   2.077       .  S
Cu130       N132   2.060       .  S
Cu130       N138   2.059       .  S
N131        N132   1.322       .  A
N131        C135   1.350       .  A
N132        C133   1.340       .  A
C133        C134   1.380       .  A
C133        H136   1.082       .  S
C134        C135   1.388       .  A
C135        H137   1.082       .  S
N138        N139   1.319       .  A
N138        C142   1.342       .  A
N139        C140   1.345       .  A
C140        C141   1.390       .  A
C140        H143   1.083       .  S
C141        C142   1.385       .  A
C141        C470   1.487       .  S
C142        H144   1.082       .  S
N145        N146   1.324       .  A
N145        C149   1.344       .  A
N145       Cu153   2.070       .  S
N146        C147   1.349       .  A
N146       Cu152   2.093       .  S
C147        C148   1.387       .  A
C147        H150   1.082   1_545  S
C148        C149   1.381       .  A
C149        H151   1.081       .  S
Cu152       N155   2.093       .  S
Cu153       N163   2.070       .  S
Cu154       N156   2.063       .  S
Cu154       N162   2.063       .  S
N155        N156   1.323       .  A
N155        C159   1.350       .  A
N156        C157   1.342       .  A
C157        C158   1.379       .  A
C157        H160   1.082       .  S
C158        C159   1.387       .  A
C158        C182   1.472       .  S
C159        H161   1.082       .  S
N162        N163   1.320       .  A
N162        C166   1.343       .  A
N163        C164   1.344       .  A
C164        C165   1.386       .  A
C164        H167   1.082       .  S
C165        C166   1.385       .  A
C165        C515   1.481       .  S
C166        H168   1.082       .  S
N169        N170   1.323       .  A
N169        C173   1.347       .  A
N169       Cu177   2.081       .  S
N170        C171   1.344       .  A
N170       Cu176   2.075       .  S
C171        C172   1.382       .  A
C171        H174   1.082       .  S
C172        C173   1.384       .  A
C173        H175   1.081   1_455  S
Cu176       N179   2.074       .  S
Cu177       N187   2.081       .  S
Cu178       N180   2.077       .  S
Cu178       N186   2.077       .  S
N179        N180   1.322       .  A
N179        C183   1.347       .  A
N180        C181   1.344       .  A
C181        C182   1.383       .  A
C181        H184   1.082       .  S
C182        C183   1.383       .  A
C183        H185   1.082       .  S
N186        N187   1.322       .  A
N186        C190   1.345       .  A
N187        C188   1.345       .  A
C188        C189   1.388       .  A
C188        H191   1.083   1_455  S
C189        C190   1.387       .  A
C189        C498   1.488       .  S
C190        H192   1.081       .  S
N193        N194   1.323       .  A
N193        C197   1.346       .  A
N193       Cu201   2.078       .  S
N194        C195   1.343       .  A
N194       Cu200   2.070       .  S
C195        C196   1.380       .  A
C195        H198   1.082       .  S
C196        C197   1.383       .  A
C196        C431   1.474       .  S
C197        H199   1.082       .  S
Cu200       N203   2.069       .  S
Cu201       N211   2.077       .  S
Cu202       N204   2.057       .  S
Cu202       N210   2.057       .  S
N203        N204   1.320       .  A
N203        C207   1.345       .  A
N204        C205   1.342       .  A
C205        C206   1.382       .  A
C205        H208   1.082       .  S
C206        C207   1.385       .  A
C206        C456   1.475       .  S
C207        H209   1.082       .  S
N210        N211   1.321       .  A
N210        C214   1.341       .  A
N211        C212   1.346       .  A
C212        C213   1.387       .  A
C212        H215   1.082       .  S
C213        C214   1.381       .  A
C213        C442   1.478       .  S
C214        H216   1.082       .  S
N217        N218   1.322       .  A
N217        C221   1.346       .  A
N217       Cu225   2.077       .  S
N218        C219   1.342       .  A
N218       Cu224   2.065       .  S
C219        C220   1.382       .  A
C219        H222   1.082       .  S
C220        C221   1.386       .  A
C220        C400   1.479       .  S
C221        H223   1.082       .  S
Cu224       N227   2.064       .  S
Cu225       N235   2.077       .  S
Cu226       N228   2.065       .  S
Cu226       N234   2.065       .  S
N227        N228   1.320       .  A
N227        C231   1.343   1_556  A
N228        C229   1.343       .  A
C229        C230   1.385   1_556  A
C229        H232   1.082       .  S
C230        C231   1.384       .  A
C230        C459   1.479       .  S
C231        H233   1.082       .  S
N234        N235   1.322       .  A
N234        C238   1.344       .  A
N235        C236   1.344       .  A
C236        C237   1.387       .  A
C236        H239   1.081       .  S
C237        C238   1.384       .  A
C237        C414   1.482       .  S
C238        H240   1.083       .  S
N241        N242   1.321       .  A
N241        C245   1.345       .  A
N241       Cu249   2.076       .  S
N242        C243   1.343       .  A
N242       Cu248   2.065       .  S
C243        C244   1.384       .  A
C243        H246   1.081       .  S
C244        C245   1.387       .  A
C244        C473   1.482       .  S
C245        H247   1.083       .  S
Cu248       N251   2.065       .  S
Cu249       N259   2.077       .  S
Cu250       N252   2.063       .  S
Cu250       N258   2.064       .  S
N251        N252   1.321       .  A
N251        C255   1.341       .  A
N252        C253   1.345       .  A
C253        C254   1.384       .  A
C253        H256   1.082       .  S
C254        C255   1.383       .  A
C254        C386   1.477       .  S
C255        H257   1.082       .  S
N258        N259   1.321       .  A
N258        C262   1.342       .  A
N259        C260   1.344       .  A
C260        C261   1.388       .  A
C260        H263   1.082       .  S
C261        C262   1.385       .  A
C261        C445   1.485       .  S
C262        H264   1.082       .  S
N265        N266   1.323       .  A
N265        C269   1.347       .  A
N265       Cu273   2.088       .  S
N266        C267   1.342       .  A
N266       Cu272   2.065       .  S
C267        C268   1.382       .  A
C267        H270   1.082       .  S
C268        C269   1.387       .  A
C268        C487   1.482       .  S
C269        H271   1.082       .  S
Cu272       N275   2.064       .  S
Cu273       N283   2.087       .  S
Cu274       N276   2.057       .  S
Cu274       N282   2.058       .  S
N275        N276   1.319       .  A
N275        C279   1.343       .  A
N276        C277   1.343       .  A
C277        C278   1.384       .  A
C277        H280   1.082       .  S
C278        C279   1.384       .  A
C278        C389   1.478       .  S
C279        H281   1.082       .  S
N282        N283   1.322       .  A
N282        C286   1.339       .  A
N283        C284   1.348       .  A
C284        C285   1.391       .  A
C284        H287   1.081       .  S
C285        C286   1.383       .  A
C285        C417   1.486       .  S
C286        H288   1.083       .  S
N289        N290   1.323       .  A
N289        C293   1.343       .  A
N289       Cu297   2.064   1_556  S
N290        C291   1.347       .  A
N290       Cu296   2.086   1_455  S
C291        C292   1.386       .  A
C291        H294   1.082   1_455  S
C292        C293   1.379       .  A
C292        C340   1.471       .  S
C293        H295   1.081       .  S
Cu296       N299   2.086       .  S
Cu297       N307   2.063       .  S
Cu298       N300   2.064       .  S
Cu298       N306   2.063   1_656  S
N299        N300   1.323       .  A
N299        C303   1.350       .  A
N300        C301   1.340       .  A
C301        C302   1.380       .  A
C301        H304   1.082       .  S
C302        C303   1.386       .  A
C302        C326   1.471       .  S
C303        H305   1.082       .  S
N306        N307   1.320       .  A
N306        C310   1.344       .  A
N307        C308   1.343       .  A
C308        C309   1.384       .  A
C308        H311   1.082       .  S
C309        C310   1.384       .  A
C309        C428   1.476       .  S
C310        H312   1.082   1_455  S
N313        N314   1.325       .  A
N313        C317   1.347       .  A
N313       Cu321   2.085       .  S
N314        C315   1.345       .  A
N314       Cu320   2.082       .  S
C315        C316   1.382       .  A
C315        H318   1.081       .  S
C316        C317   1.384       .  A
C316        C364   1.473       .  S
C317        H319   1.081       .  S
Cu320       N323   2.080       .  S
Cu321       N331   2.083       .  S
Cu322       N324   2.056       .  S
Cu322       N330   2.056       .  S
N323        N324   1.320       .  A
N323        C327   1.350       .  A
N324        C325   1.339       .  A
C325        C326   1.380       .  A
C325        H328   1.082       .  S
C326        C327   1.387       .  A
C327        H329   1.082       .  S
N330        N331   1.321       .  A
N330        C334   1.341       .  A
N331        C332   1.348       .  A
C332        C333   1.387       .  A
C332        H335   1.082       .  S
C333        C334   1.380       .  A
C333        C403   1.477       .  S
C334        H336   1.083       .  S
N337        N338   1.323       .  A
N337        C341   1.345       .  A
N337       Cu345   2.068       .  S
N338        C339   1.345       .  A
N338       Cu344   2.082       .  S
C339        C340   1.384       .  A
C339        H342   1.082       .  S
C340        C341   1.381       .  A
C341        H343   1.081       .  S
Cu344       N347   2.082       .  S
Cu345       N355   2.068       .  S
Cu346       N348   2.068       .  S
Cu346       N354   2.067       .  S
N347        N348   1.323       .  A
N347        C351   1.348       .  A
N348        C349   1.343       .  A
C349        C350   1.381       .  A
C349        H352   1.082       .  S
C350        C351   1.385       .  A
C350        C374   1.470       .  S
C351        H353   1.082       .  S
N354        N355   1.321       .  A
N354        C358   1.344       .  A
N355        C356   1.343       .  A
C356        C357   1.384       .  A
C356        H359   1.082       .  S
C357        C358   1.384       .  A
C357        C540   1.478       .  S
C358        H360   1.082       .  S
N361        N362   1.323       .  A
N361        C365   1.344       .  A
N361       Cu369   2.073       .  S
N362        C363   1.347   1_554  A
N362       Cu368   2.080       .  S
C363        C364   1.385       .  A
C363        H366   1.082       .  S
C364        C365   1.382   1_556  A
C365        H367   1.081       .  S
Cu368       N371   2.080       .  S
Cu369       N379   2.073       .  S
Cu370       N372   2.075       .  S
Cu370       N378   2.074       .  S
N371        N372   1.323       .  A
N371        C375   1.347   1_554  A
N372        C373   1.344       .  A
C373        C374   1.381   1_554  A
C373        H376   1.082       .  S
C374        C375   1.383       .  A
C375        H377   1.082       .  S
N378        N379   1.321       .  A
N378        C382   1.346       .  A
N379        C380   1.344       .  A
C380        C381   1.385       .  A
C380        H383   1.081       .  S
C381        C382   1.386       .  A
C381        C571   1.483       .  S
C382        H384   1.082       .  S
C385        C386   1.402       .  A
C385        C390   1.398       .  A
C385        H392   1.084       .  S
C386        C387   1.414       .  A
C387        C388   1.402       .  A
C387        N394   1.433       .  S
C388        C389   1.403       .  A
C388        H393   1.084       .  S
C389        C390   1.414       .  A
C390        N391   1.432       .  S
N391        O395   1.262       .  A
N391        O396   1.262       .  A
N394        O398   1.262       .  A
N394        O397   1.262       .  A
C399        C400   1.402       .  A
C399        C404   1.399       .  A
C399        H406   1.085       .  S
C400        C401   1.414       .  A
C401        C402   1.404       .  A
C401        N408   1.433       .  S
C402        C403   1.402       .  A
C402        H407   1.085       .  S
C403        C404   1.412       .  A
C404        N405   1.433   1_556  S
N405        O409   1.262       .  A
N405        O410   1.262       .  A
N408        O412   1.262       .  A
N408        O411   1.262       .  A
C413        C414   1.402       .  A
C413        C418   1.399       .  A
C413        H420   1.085       .  S
C414        C415   1.414       .  A
C415        C416   1.404       .  A
C415        N422   1.435       .  S
C416        C417   1.405       .  A
C416        H421   1.085       .  S
C417        C418   1.416       .  A
C418        N419   1.436       .  S
N419        O423   1.263       .  A
N419        O424   1.262       .  A
N422        O426   1.262       .  A
N422        O425   1.262       .  A
C427        C428   1.404       .  A
C427        C432   1.399       .  A
C427        H434   1.084       .  S
C428        C429   1.413       .  A
C429        C430   1.402       .  A
C429        N436   1.434   1_554  S
C430        C431   1.402       .  A
C430        H435   1.085       .  S
C431        C432   1.408       .  A
C432        N433   1.429       .  S
N433        O437   1.262       .  A
N433        O438   1.262       .  A
N436        O440   1.262       .  A
N436        O439   1.262   1_455  A
C441        C442   1.403       .  A
C441        C446   1.401       .  A
C441        H448   1.084       .  S
C442        C443   1.411       .  A
C443        C444   1.401       .  A
C443        N450   1.435       .  S
C444        C445   1.407       .  A
C444        H449   1.083       .  S
C445        C446   1.415       .  A
C446        N447   1.436       .  S
N447        O451   1.263       .  A
N447        O452   1.263       .  A
N450        O454   1.263       .  A
N450        O453   1.262       .  A
C455        C456   1.403       .  A
C455        C460   1.401       .  A
C455        H462   1.084       .  S
C456        C457   1.408       .  A
C457        C458   1.400   1_554  A
C457        N464   1.432   1_554  S
C458        C459   1.406   1_556  A
C458        H463   1.084       .  S
C459        C460   1.414       .  A
C460        N461   1.435       .  S
N461        O465   1.262       .  A
N461        O466   1.263       .  A
N464        O468   1.262       .  A
N464        O467   1.262   1_556  A
C469        C470   1.407       .  A
C469        C474   1.402       .  A
C469        H476   1.085       .  S
C470        C471   1.415       .  A
C471        C472   1.401       .  A
C471        N478   1.433       .  S
C472        C473   1.404       .  A
C472        H477   1.086       .  S
C473        C474   1.412       .  A
C474        N475   1.435       .  S
N475        O479   1.263       .  A
N475        O480   1.262       .  A
N478        O482   1.262       .  A
N478        O481   1.263       .  A
C483        C484   1.403       .  A
C483        C488   1.402       .  A
C483        H490   1.083   1_455  S
C484        C485   1.412       .  A
C485        C486   1.403       .  A
C485        N492   1.431       .  S
C486        C487   1.404       .  A
C486        H491   1.083       .  S
C487        C488   1.415       .  A
C488        N489   1.435       .  S
N489        O493   1.262   1_455  A
N489        O494   1.263   1_455  A
N492        O496   1.262       .  A
N492        O495   1.262       .  A
C497        C498   1.406       .  A
C497        C502   1.405       .  A
C497        H504   1.086       .  S
C498        C499   1.413   1_455  A
C499        C500   1.400       .  A
C499        N506   1.432       .  S
C500        C501   1.405       .  A
C500        H505   1.086       .  S
C501        C502   1.413   1_655  A
C502        N503   1.432       .  S
N503        O507   1.262       .  A
N503        O508   1.262       .  A
N506        O510   1.262       .  A
N506        O509   1.262   1_655  A
C511        C512   1.402       .  A
C511        C516   1.403       .  A
C511        H518   1.084       .  S
C512        C513   1.414       .  A
C513        C514   1.401       .  A
C513        N520   1.435       .  S
C514        C515   1.403       .  A
C514        H519   1.084       .  S
C515        C516   1.415       .  A
C516        N517   1.435       .  S
N517        O521   1.262       .  A
N517        O522   1.263       .  A
N520        O524   1.263       .  A
N520        O523   1.262       .  A
C525        C526   1.404       .  A
C525        C530   1.396       .  A
C525        H532   1.084       .  S
C526        C527   1.414       .  A
C527        C528   1.403       .  A
C527        N534   1.435       .  S
C528        C529   1.402       .  A
C528        H533   1.085       .  S
C529        C530   1.410       .  A
C530        N531   1.434       .  S
N531        O535   1.262       .  A
N531        O536   1.262       .  A
N534        O538   1.262       .  A
N534        O537   1.263       .  A
C539        C540   1.402       .  A
C539        C544   1.399       .  A
C539        H546   1.084       .  S
C540        C541   1.414       .  A
C541        C542   1.404       .  A
C541        N548   1.435       .  S
C542        C543   1.403       .  A
C542        H547   1.084       .  S
C543        C544   1.413       .  A
C544        N545   1.434   1_455  S
N545        O549   1.262   1_655  A
N545        O550   1.262       .  A
N548        O552   1.262       .  A
N548        O551   1.262       .  A
C553        C554   1.406       .  A
C553        C558   1.400       .  A
C553        H560   1.083       .  S
C554        C555   1.415       .  A
C555        C556   1.403       .  A
C555        N562   1.433       .  S
C556        C557   1.404       .  A
C556        H561   1.084       .  S
C557        C558   1.411       .  A
C558        N559   1.434       .  S
N559        O563   1.262       .  A
N559        O564   1.263       .  A
N562        O566   1.262       .  A
N562        O565   1.262       .  A
C567        C568   1.405       .  A
C567        C572   1.404       .  A
C567        H574   1.084       .  S
C568        C569   1.417       .  A
C569        C570   1.401       .  A
C569        N576   1.434       .  S
C570        C571   1.402       .  A
C570        H575   1.085       .  S
C571        C572   1.413       .  A
C572        N573   1.432       .  S
N573        O577   1.262       .  A
N573        O578   1.262       .  A
N576        O580   1.262       .  A
N576        O579   1.263       .  A
C581        C582   1.406       .  A
C581        C586   1.404       .  A
C581        H588   1.084       .  S
C582        C583   1.413       .  A
C583        C584   1.400       .  A
C583        N590   1.434       .  S
C584        C585   1.406       .  A
C584        H589   1.083       .  S
C585        C586   1.414       .  A
C586        N587   1.434       .  S
N587        O591   1.262       .  A
N587        O592   1.262       .  A
N590        O594   1.262       .  A
N590        O593   1.263       .  A
C595        C596   1.403       .  A
C595        C600   1.398       .  A
C595        H602   1.084       .  S
C596        C597   1.414       .  A
C597        C598   1.400       .  A
C597        N604   1.432       .  S
C598        C599   1.402       .  A
C598        H603   1.085       .  S
C599        C600   1.412       .  A
C600        N601   1.432   1_554  S
N601        O605   1.262       .  A
N601        O606   1.262       .  A
N604        O608   1.262       .  A
N604        O607   1.262       .  A
