geometry optimzed in LAMMPS
_audit_creation_date              2020-11-30 
_audit_creation_method            'lammps2cif' 
_symmetry_space_group_name_H-M    'P1' 
_symmetry_Int_Tables_number       1 
_symmetry_cell_setting            triclinic 
loop_ 
_symmetry_equiv_pos_as_xyz 
  x,y,z 
_cell_length_a                    29.79651706 
_cell_length_b                    32.15435290465969 
_cell_length_c                    32.20765210854763 
_cell_angle_alpha                 90.25456128177119 
_cell_angle_beta                  89.33595113252397 
_cell_angle_gamma                 90.0767849689459 
loop_ 
_atom_site_label 
_atom_site_type_symbol 
_atom_site_fract_x 
_atom_site_fract_y 
_atom_site_fract_z 
_atom_site_charge 
O1          O  0.60228300  0.94760635  0.49952643    -0.80700
O2          O  0.42641189  0.03123723  0.44933247    -0.80700
O3          O  0.47309295  0.92567893  0.42771661    -0.80700
O4          O  0.53225645  0.05126569  0.44564670    -0.80600
O5          O  0.40895059  0.94813094  0.45272217    -0.80800
O6          O  0.59097213  0.01533152  0.45823356    -0.80700
O7          O  0.46292828  0.07918539  0.48419270    -0.80700
O8          O  0.55869000  0.92831036  0.44986439    -0.80700
C9          C  0.59626350  0.92657802  0.46718458     1.09000
C10         C  0.43690083  0.06887947  0.45490752     1.08900
C11         C  0.43213679  0.93337821  0.42274514     1.09000
C12         C  0.57074359  0.04040206  0.43479583     1.08900
O13         O  0.58719851  0.04041271  0.54199477    -0.80700
O14         O  0.42093505  0.95422525  0.54322763    -0.80700
O15         O  0.53325939  0.90820834  0.53652122    -0.80700
O16         O  0.49126791  0.03896850  0.56132069    -0.80700
O17         O  0.42312954  0.03662518  0.53777762    -0.80700
O18         O  0.55020843  0.96895400  0.56440585    -0.80700
O19         O  0.54723471  0.09281027  0.52005140    -0.80600
O20         O  0.44665604  0.89934605  0.51098214    -0.80700
Co21       Co  0.55887408  0.99288285  0.50963767     1.51500
Co22       Co  0.42479619  0.99175498  0.49555547     1.51700
Co23       Co  0.50234757  0.92059569  0.48186471     1.51600
Co24       Co  0.51358789  0.04283633  0.50315658     1.51500
O25         O  0.49297079  0.98464769  0.49080977    -1.42600
C26         C  0.58040334  0.07959999  0.54073153     1.08900
C27         C  0.42734118  0.91571445  0.54220524     1.09000
C28         C  0.54714933  0.92999493  0.56702151     1.09000
C29         C  0.44975576  0.04495695  0.56667644     1.08900
O30         O  0.93139206  0.55829103  0.51828168    -0.80700
O31         O  0.93356507  0.43176264  0.47807050    -0.80700
O32         O  0.92996175  0.51262347  0.43483832    -0.80700
O33         O  0.93532862  0.47523329  0.56323425    -0.80600
O34         O  0.95942710  0.45981554  0.40588685    -0.80800
O35         O  0.96205176  0.53080088  0.58931907    -0.80700
O36         O  0.96204604  0.40442306  0.53132585    -0.80700
O37         O  0.95625230  0.58660406  0.46332903    -0.80700
C38         C  0.92942722  0.58787621  0.49427250     1.09000
C39         C  0.93332434  0.40262202  0.50261011     1.08900
C40         C  0.92997982  0.48817824  0.40524422     1.09000
C41         C  0.93378791  0.50125039  0.59142664     1.08900
O42         O  0.05488209  0.54337043  0.55134483    -0.80700
O43         O  0.05444800  0.45241191  0.43737181    -0.80700
O44         O  0.05076229  0.55448469  0.44975211    -0.80700
O45         O  0.05686488  0.44088601  0.53663168    -0.80700
O46         O  0.02926090  0.39795992  0.49314488    -0.80700
O47         O  0.02555930  0.59507336  0.49759660    -0.80700
O48         O  0.03222087  0.49467916  0.59182719    -0.80600
O49         O  0.02604598  0.49834851  0.39742057    -0.80700
Co50       Co  0.99347937  0.55051990  0.53458388     1.51500
Co51       Co  0.99435680  0.44184814  0.45827249     1.51700
Co52       Co  0.99080295  0.53369511  0.44224537     1.51600
Co53       Co  0.99635430  0.45828132  0.54984119     1.51500
O54         O  0.99687537  0.49635380  0.49619313    -1.42600
C55         C  0.05860140  0.52511161  0.58473644     1.08900
C56         C  0.05376277  0.46862301  0.40263846     1.09000
C57         C  0.05167389  0.58903037  0.46656871     1.09000
C58         C  0.05663942  0.40533440  0.52225692     1.08900
O59         O  0.43030167  0.45171627  0.96664815    -0.80700
O60         O  0.58719128  0.47337075  0.06270705    -0.80700
O61         O  0.52962410  0.44892234  0.93709869    -0.80700
O62         O  0.49248219  0.43111865  0.05983616    -0.80600
O63         O  0.58108375  0.44452304  0.98354245    -0.80800
O64         O  0.42379529  0.45257674  0.05009951    -0.80700
O65         O  0.54142496  0.47118826  0.11751819    -0.80700
O66         O  0.45684525  0.48997054  0.91672352    -0.80700
C67         C  0.43263015  0.45984367  0.92857524     1.09000
C68         C  0.57903002  0.46255590  0.10063847     1.08900
C69         C  0.56130198  0.42907625  0.95302215     1.09000
C70         C  0.45080234  0.42442456  0.06072791     1.08900
O71         O  0.42822642  0.54280118  0.04831823    -0.80700
O72         O  0.58539024  0.52858046  0.94837567    -0.80700
O73         O  0.49094063  0.56541391  0.95354659    -0.80700
O74         O  0.53307283  0.54635978  0.08142680    -0.80700
O75         O  0.57778309  0.55814155  0.02919510    -0.80700
O76         O  0.42299291  0.54216104  0.96605371    -0.80700
O77         O  0.45691754  0.50756649  0.09948491    -0.80600
O78         O  0.53805137  0.52106319  0.89605335    -0.80700
Co79       Co  0.43142296  0.49737360  0.00784651     1.51500
Co80       Co  0.57370446  0.50126003  0.00612081     1.51700
Co81       Co  0.51211799  0.50742920  0.94803838     1.51600
Co82       Co  0.51335974  0.48876413  0.06750465     1.51500
O83         O  0.50028764  0.49974602  0.00810033    -1.42600
C84         C  0.43159619  0.53669461  0.08656589     1.08900
C85         C  0.57496954  0.53407473  0.90990469     1.09000
C86         C  0.44886767  0.57073864  0.95342787     1.09000
C87         C  0.56188408  0.56911615  0.06389841     1.08900
C88         C  0.64286671  0.85442995  0.78049760     0.02600
C89         C  0.67362786  0.82121021  0.77707416    -0.13600
C90         C  0.68267941  0.80245337  0.73806677     0.00100
C91         C  0.65990993  0.81702545  0.70287542    -0.12100
C92         C  0.62790259  0.84889335  0.70664031     0.02600
C93         C  0.61980915  0.86741903  0.74524869    -0.11500
H94         H  0.69188516  0.81138627  0.80417629     0.08200
H95         H  0.66714639  0.80374820  0.67252039     0.05700
H96         H  0.59638428  0.89315319  0.74760196     0.05600
C97         C  0.75368444  0.70932048  0.75861891     0.79700
N98         N  0.78175702  0.70921234  0.72466085    -0.78600
C99         C  0.77755098  0.73906606  0.69494357     0.82100
N100        N  0.74520625  0.76877012  0.69976901    -0.78600
C101        C  0.71728628  0.76928611  0.73343774     0.82200
N102        N  0.72169346  0.73936611  0.76272553    -0.80300
C103        C  0.85523282  0.71779654  0.59971605     0.02600
C104        C  0.82657173  0.70985721  0.63464694    -0.13600
C105        C  0.81040935  0.74340918  0.65973069     0.00100
C106        C  0.82422976  0.78399346  0.65006178    -0.12100
C107        C  0.85153921  0.79194011  0.61564089     0.02600
C108        C  0.86609126  0.75921335  0.59033868    -0.11500
H109        H  0.81657411  0.67828110  0.64179405     0.08200
H110        H  0.81301516  0.80997273  0.66907007     0.05700
H111        H  0.88638277  0.76619347  0.56307106     0.05600
C112        C  0.79152310  0.63722038  0.84571215     0.02600
C113        C  0.75537486  0.60930116  0.84567412    -0.13600
C114        C  0.71661856  0.61754990  0.82334808     0.00100
C115        C  0.71633239  0.65074578  0.79535537    -0.12100
C116        C  0.75494265  0.67533174  0.78949222     0.02600
C117        C  0.79217182  0.66935331  0.81567469    -0.11500
H118        H  0.75563881  0.58250579  0.86597813     0.08200
H119        H  0.68607095  0.65748574  0.77832627     0.05700
H120        H  0.82027841  0.69064444  0.81375519     0.05600
C121        C  0.29337200  0.21987420  0.73828955     0.79700
N122        N  0.29323446  0.25005986  0.76800183    -0.78600
C123        C  0.26303704  0.28176073  0.76656171     0.82100
N124        N  0.23251249  0.28292097  0.73539944    -0.78600
C125        C  0.23257097  0.25297240  0.70542186     0.82200
N126        N  0.26304048  0.22158703  0.70718882    -0.80300
C127        C  0.30011574  0.36392633  0.84398623     0.02600
C128        C  0.30154231  0.33375888  0.81227253    -0.13600
C129        C  0.26187590  0.31346618  0.79991691     0.00100
C130        C  0.22112093  0.32254541  0.82060030    -0.12100
C131        C  0.22009550  0.35091730  0.85388477     0.02600
C132        C  0.25934577  0.37240223  0.86429226    -0.11500
H133        H  0.33315578  0.32668339  0.79683912     0.08200
H134        H  0.19071146  0.30629286  0.81200641     0.05700
H135        H  0.25839167  0.39525826  0.88916026     0.05600
C136        C  0.36183986  0.12919909  0.77891391     0.02600
C137        C  0.33357322  0.16428818  0.77810229    -0.13600
C138        C  0.32516106  0.18459030  0.74016827     0.00100
C139        C  0.34551396  0.16946916  0.70339699    -0.12100
C140        C  0.37582554  0.13622548  0.70493959     0.02600
C141        C  0.38432465  0.11702088  0.74258399    -0.11500
H142        H  0.31699803  0.17470838  0.80637834     0.08200
H143        H  0.33809662  0.18361771  0.67376883     0.05700
H144        H  0.40767778  0.09117458  0.74322134     0.05600
C145        C  0.14602955  0.21079167  0.63126379     0.02600
C146        C  0.18120471  0.21296496  0.65958469    -0.13600
C147        C  0.19731425  0.25191349  0.67329661     0.00100
C148        C  0.18012272  0.28876349  0.65542516    -0.12100
C149        C  0.14611425  0.28608248  0.62544726     0.02600
C150        C  0.12730714  0.24765056  0.61649839    -0.11500
H151        H  0.19621090  0.18447999  0.67061453     0.08200
H152        H  0.19386429  0.31879065  0.66376102     0.05700
H153        H  0.09973434  0.24627518  0.59473626     0.05600
O154        O  0.56382365  0.98435027  0.91061173    -0.80700
O155        O  0.45973640  0.94346129  0.05010990    -0.80700
O156        O  0.61125819  0.95203617  0.04348814    -0.80700
O157        O  0.43107605  0.95834657  0.96614848    -0.80600
O158        O  0.54634068  0.92380498  0.06098654    -0.80800
O159        O  0.49283934  0.94111078  0.93635660    -0.80700
O160        O  0.41500372  0.99370064  0.03672463    -0.80700
O161        O  0.60230493  0.95108526  0.95789800    -0.80700
C162        C  0.59179748  0.95650211  0.92033306     1.09000
C163        C  0.42178067  0.95994613  0.05517211     1.08900
C164        C  0.58861509  0.92328491  0.06104543     1.09000
C165        C  0.45246751  0.93255688  0.94368752     1.08900
O166        O  0.47809361  0.01544783  0.89506454    -0.80700
O167        O  0.56558871  0.00504591  0.09204162    -0.80700
O168        O  0.59988676  0.04057745  0.95722852    -0.80700
O169        O  0.46672603  0.06150555  0.02008443    -0.80700
O170        O  0.47899141  0.02999988  0.07934665    -0.80700
O171        O  0.53033432  0.05925764  0.94868055    -0.80700
O172        O  0.43743502  0.04103023  0.94641323    -0.80600
O173        O  0.59636875  0.04187654  0.04194859    -0.80700
Co174      Co  0.51018685  0.99986728  0.94513866     1.51500
Co175      Co  0.51335380  0.97631093  0.06552911     1.51700
Co176      Co  0.59715196  0.99609756  0.00039409     1.51600
Co177      Co  0.46194650  0.00738087  0.99386638     1.51500
O178        O  0.52835451  0.98899074  0.00353675    -1.42600
C179        C  0.44539633  0.03780619  0.90756486     1.08900
C180        C  0.58910783  0.03561929  0.08004415     1.09000
C181        C  0.57188214  0.06678049  0.94424321     1.09000
C182        C  0.46603503  0.06187042  0.05911156     1.08900
C183        C  0.28292215  0.74152470  0.79223526     0.79700
N184        N  0.28113340  0.77128046  0.76276690    -0.78600
C185        C  0.25296890  0.76810417  0.73009798     0.82100
N186        N  0.22590512  0.73391217  0.72646820    -0.78600
C187        C  0.22681195  0.70332313  0.75595507     0.82200
N188        N  0.25568008  0.70740732  0.78861832    -0.80300
C189        C  0.37132395  0.71152250  0.87094389     0.02600
C190        C  0.33500930  0.70899062  0.84367669    -0.13600
C191        C  0.31769790  0.74509573  0.82532806     0.00100
C192        C  0.33650144  0.78428309  0.83654965    -0.12100
C193        C  0.37239627  0.78679506  0.86487847     0.02600
C194        C  0.38960017  0.75015005  0.88136528    -0.11500
H195        H  0.32148813  0.67870868  0.83566044     0.08200
H196        H  0.32338679  0.81263243  0.82338269     0.05700
H197        H  0.41690187  0.75172441  0.90330467     0.05600
C198        C  0.22709736  0.85789105  0.65655639     0.02600
C199        C  0.27131723  0.86996684  0.64746060    -0.13600
C200        C  0.30751186  0.84469253  0.65729141     0.00100
C201        C  0.30053517  0.81028620  0.68288931    -0.12100
C202        C  0.25696598  0.80018023  0.69730692     0.02600
C203        C  0.21979948  0.82322029  0.68278991    -0.11500
H204        H  0.27745527  0.89744442  0.62879187     0.08200
H205        H  0.32899770  0.79141643  0.69163492     0.05700
H206        H  0.18599886  0.81454375  0.69196805     0.05600
C207        C  0.15902042  0.61119671  0.71115568     0.02600
C208        C  0.14477211  0.59233295  0.74783942    -0.13600
C209        C  0.15381432  0.60962982  0.78659303     0.00100
C210        C  0.18091555  0.64563632  0.78891598    -0.12100
C211        C  0.19742366  0.66520667  0.75244754     0.02600
C212        C  0.18514107  0.64811052  0.71329946    -0.11500
H213        H  0.12423457  0.56448196  0.74608910     0.08200
H214        H  0.18783565  0.65922644  0.81900147     0.05700
H215        H  0.19603773  0.66306758  0.68485739     0.05600
C216        C  0.75688679  0.28192593  0.24209159     0.79700
N217        N  0.78234899  0.28325765  0.27735765    -0.78600
C218        C  0.77586653  0.25410424  0.30762867     0.82100
N219        N  0.74442176  0.22398466  0.30175114    -0.78600
C220        C  0.71964790  0.22162993  0.26683461     0.82200
N221        N  0.72596609  0.25090656  0.23700085    -0.80300
C222        C  0.83804393  0.19999621  0.39284588     0.02600
C223        C  0.81397021  0.20854514  0.35722209    -0.13600
C224        C  0.80583673  0.24955981  0.34443845     0.00100
C225        C  0.82459683  0.28281744  0.36799659    -0.12100
C226        C  0.85032117  0.27413723  0.40413018     0.02600
C227        C  0.85559704  0.23262630  0.41628252    -0.11500
H228        H  0.80122288  0.18248273  0.33937463     0.08200
H229        H  0.81901974  0.31469559  0.35870523     0.05700
H230        H  0.87437890  0.22550406  0.44396966     0.05600
C231        C  0.80457553  0.34623199  0.15224011     0.02600
C232        C  0.80235746  0.31879865  0.18639960    -0.13600
C233        C  0.76176911  0.31384826  0.20905842     0.00100
C234        C  0.72388754  0.33725978  0.19770287    -0.12100
C235        C  0.72640796  0.36610971  0.16509068     0.02600
C236        C  0.76652931  0.36976933  0.14226406    -0.11500
H237        H  0.83144530  0.30033268  0.19427517     0.08200
H238        H  0.69248092  0.33330429  0.21454716     0.05700
H239        H  0.76813646  0.39114293  0.11637156     0.05600
C240        C  0.64486970  0.12903291  0.29336941     0.02600
C241        C  0.63465188  0.11388601  0.25397143    -0.13600
C242        C  0.65081524  0.13350843  0.21802472     0.00100
C243        C  0.67711152  0.16994848  0.22171766    -0.12100
C244        C  0.68815695  0.18576668  0.26142987     0.02600
C245        C  0.67183414  0.16471668  0.29697963    -0.11500
H246        H  0.61410949  0.08621352  0.25121070     0.08200
H247        H  0.69053620  0.18463447  0.19400183     0.05700
H248        H  0.68040219  0.17582953  0.32772465     0.05600
O249        O  0.91957741  0.55151877  0.97911078    -0.80700
O250        O  0.08265011  0.44009488  0.97265417    -0.80700
O251        O  0.02112068  0.53039932  0.93058700    -0.80700
O252        O  0.97534377  0.45748867  0.93437386    -0.80600
O253        O  0.08670615  0.52448579  0.95884057    -0.80800
O254        O  0.91329851  0.46556069  0.97003679    -0.80700
O255        O  0.03008818  0.39346800  0.95436681    -0.80700
O256        O  0.97152524  0.59626133  0.95540464    -0.80700
C257        C  0.93093370  0.58426605  0.95710669     1.09000
C258        C  0.07041796  0.40672454  0.95266345     1.08900
C259        C  0.06327646  0.53188229  0.92719164     1.09000
C260        C  0.93293846  0.45778602  0.93599097     1.08900
O261        O  0.93757265  0.45189163  0.05572878    -0.80700
O262        O  0.07182253  0.54186542  0.04665402    -0.80700
O263        O  0.97436769  0.58164222  0.03553935    -0.80700
O264        O  0.03432255  0.41107724  0.03503430    -0.80700
O265        O  0.07102188  0.46235952  0.06227144    -0.80700
O266        O  0.94159088  0.53133085  0.06822330    -0.80700
O267        O  0.95281402  0.40603344  0.00746842    -0.80600
O268        O  0.05227497  0.58486005  0.99807622    -0.80700
Co269      Co  0.93354654  0.49968043  0.01820756     1.51500
Co270      Co  0.07253134  0.49264033  0.01070749     1.51700
Co271      Co  0.99627884  0.55139266  0.98372185     1.51600
Co272      Co  0.00659830  0.43887000  0.98482655     1.51500
O273        O  0.00276945  0.49563903  0.00978947    -1.42600
C274        C  0.93548443  0.41500166  0.04282259     1.08900
C275        C  0.07313235  0.57776965  0.03155879     1.09000
C276        C  0.95255103  0.56847967  0.06642932     1.09000
C277        C  0.05932197  0.42524420  0.06306783     1.08900
C278        C  0.22937471  0.14232760  0.36075981     0.02600
C279        C  0.22525710  0.17308791  0.33012985    -0.13600
C280        C  0.26394288  0.19264866  0.31384260     0.00100
C281        C  0.30648895  0.18212049  0.32919380    -0.12100
C282        C  0.31038865  0.15202452  0.36003432     0.02600
C283        C  0.27217327  0.13131336  0.37442904    -0.11500
H284        H  0.19235837  0.18136490  0.31875590     0.08200
H285        H  0.33640420  0.19742816  0.31736909     0.05700
H286        H  0.27576339  0.10701375  0.39739221     0.05600
C287        C  0.26116604  0.22228945  0.27928369     0.79700
N288        N  0.29085402  0.21841662  0.24721625    -0.78600
C289        C  0.29050759  0.24539026  0.21512555     0.82100
N290        N  0.25985543  0.27693660  0.21546012    -0.78600
C291        C  0.22970863  0.28144502  0.24752628     0.82200
N292        N  0.23051006  0.25379776  0.27948032    -0.80300
C293        C  0.14794229  0.37017152  0.27721902     0.02600
C294        C  0.18027343  0.33799228  0.28127385    -0.13600
C295        C  0.19465821  0.31471142  0.24581502     0.00100
C296        C  0.17476514  0.32298375  0.20731040    -0.12100
C297        C  0.14084044  0.35287246  0.20397893     0.02600
C298        C  0.12864049  0.37682823  0.23853548    -0.11500
H299        H  0.19458515  0.33173148  0.31136548     0.08200
H300        H  0.18479359  0.30540745  0.17998684     0.05700
H301        H  0.10328508  0.40079039  0.23536019     0.05600
C302        C  0.37755942  0.27670975  0.13466125     0.02600
C303        C  0.34212319  0.27850963  0.16347445    -0.13600
C304        C  0.32556918  0.24205205  0.18194542     0.00100
C305        C  0.34478952  0.20328133  0.17017911    -0.12100
C306        C  0.37989084  0.20165589  0.14029851     0.02600
C307        C  0.39598934  0.23855489  0.12298177    -0.11500
H308        H  0.32850042  0.30852854  0.17240227     0.08200
H309        H  0.33231138  0.17467377  0.18374573     0.05700
H310        H  0.42291444  0.23757461  0.10003452     0.05600
C311        C  0.77069145  0.31136220  0.74439345     0.79700
N312        N  0.74076938  0.30163286  0.77525224    -0.78600
C313        C  0.71618839  0.26582785  0.77465245     0.82100
N314        N  0.72191866  0.23909205  0.74199689    -0.78600
C315        C  0.75196468  0.24782895  0.71063883     0.82200
N316        N  0.77623914  0.28411035  0.71201966    -0.80300
C317        C  0.83520169  0.41379247  0.71974863     0.02600
C318        C  0.81217156  0.37530686  0.71342030    -0.13600
C319        C  0.79751890  0.35101974  0.74808663     0.00100
C320        C  0.80926042  0.36461981  0.78830424    -0.12100
C321        C  0.83264787  0.40194730  0.79420164     0.02600
C322        C  0.84242252  0.42724269  0.76048404    -0.11500
H323        H  0.80629465  0.36420313  0.68221763     0.08200
H324        H  0.80186211  0.34532813  0.81505317     0.05700
H325        H  0.86011172  0.45624744  0.76605397     0.05600
C326        C  0.63486342  0.21253442  0.85320494     0.02600
C327        C  0.66698497  0.21756684  0.82047630    -0.13600
C328        C  0.68195412  0.25803924  0.80869808     0.00100
C329        C  0.66424237  0.29261340  0.83057999    -0.12100
C330        C  0.63270419  0.28747647  0.86280364     0.02600
C331        C  0.61852033  0.24778718  0.87389987    -0.11500
H332        H  0.68050689  0.19037079  0.80485951     0.08200
H333        H  0.67471251  0.32387054  0.82249799     0.05700
H334        H  0.59478940  0.24429098  0.89944342     0.05600
C335        C  0.72090969  0.17469981  0.62142802     0.02600
C336        C  0.71765881  0.20228008  0.65548585    -0.13600
C337        C  0.75659829  0.21852368  0.67445189     0.00100
C338        C  0.79927874  0.20497209  0.65980322    -0.12100
C339        C  0.80267479  0.17560006  0.62702407     0.02600
C340        C  0.76341451  0.16206082  0.60739547    -0.11500
H341        H  0.68475714  0.21130174  0.66703019     0.08200
H342        H  0.82939175  0.21547350  0.67518479     0.05700
H343        H  0.76587588  0.13944079  0.58239005     0.05600
C344        C  0.76226707  0.75528913  0.29880195     0.79700
N345        N  0.78951630  0.72132351  0.29745714    -0.78600
C346        C  0.78546459  0.69265790  0.26673186     0.82100
N347        N  0.75440238  0.69864906  0.23663233    -0.78600
C348        C  0.72684916  0.73238200  0.23721708     0.82200
N349        N  0.73098668  0.76083128  0.26855174    -0.80300
C350        C  0.73526456  0.82942423  0.38791980     0.02600
C351        C  0.73013535  0.80494547  0.35183945    -0.13600
C352        C  0.76781554  0.78600512  0.33282688     0.00100
C353        C  0.81120750  0.79617129  0.34706328    -0.12100
C354        C  0.81610444  0.82220493  0.38175805     0.02600
C355        C  0.77826302  0.83516931  0.40378277    -0.11500
H356        H  0.69724388  0.80048469  0.33859941     0.08200
H357        H  0.84072744  0.78491180  0.33067462     0.05700
H358        H  0.78291157  0.85346903  0.43180521     0.05600
C359        C  0.87425625  0.62977612  0.21259444     0.02600
C360        C  0.88343287  0.59870262  0.24126282    -0.13600
C361        C  0.86514721  0.59972009  0.28156469     0.00100
C362        C  0.83282665  0.63101533  0.29118974    -0.12100
C363        C  0.82032276  0.66035062  0.26049230     0.02600
C364        C  0.84201059  0.65968715  0.22173716    -0.11500
H365        H  0.90500244  0.57323380  0.23168339     0.08200
H366        H  0.81724509  0.63223780  0.32170876     0.05700
H367        H  0.83356839  0.68242765  0.19830365     0.05600
C368        C  0.65765260  0.78364250  0.15177101     0.02600
C369        C  0.63902296  0.74847774  0.13295206    -0.13600
C370        C  0.64815726  0.70848419  0.14725249     0.00100
C371        C  0.67595143  0.70365208  0.18201530    -0.12100
C372        C  0.69476458  0.73862119  0.20229783     0.02600
C373        C  0.68500477  0.77882701  0.18699397    -0.11500
H374        H  0.61696545  0.75236744  0.10670172     0.08200
H375        H  0.68311186  0.67260821  0.19307310     0.05700
H376        H  0.69970732  0.80603030  0.20142546     0.05600
C377        C  0.21656481  0.75369259  0.27921505     0.79700
N378        N  0.24333955  0.78751315  0.27383195    -0.78600
C379        C  0.27038510  0.79151706  0.23997708     0.82100
N380        N  0.27108231  0.76080480  0.21085178    -0.78600
C381        C  0.24477696  0.72643352  0.21560680     0.82200
N382        N  0.21724680  0.72297877  0.24976939    -0.80300
C383        C  0.34534233  0.88209253  0.26945462     0.02600
C384        C  0.31762250  0.84685067  0.27188176    -0.13600
C385        C  0.29936115  0.82878994  0.23599467     0.00100
C386        C  0.30873281  0.84666969  0.19709385    -0.12100
C387        C  0.33692446  0.88171105  0.19390265     0.02600
C388        C  0.35504559  0.89914068  0.23030262    -0.11500
H389        H  0.31129742  0.83269168  0.30184414     0.08200
H390        H  0.29378539  0.83357202  0.16941479     0.05700
H391        H  0.37725008  0.92577072  0.22811471     0.05600
C392        C  0.14176232  0.71617319  0.36996235     0.02600
C393        C  0.16981310  0.71494193  0.33408516    -0.13600
C394        C  0.18595867  0.75255804  0.31632629     0.00100
C395        C  0.17431376  0.79073012  0.33564372    -0.12100
C396        C  0.14549837  0.79176102  0.37023015     0.02600
C397        C  0.12850824  0.75454702  0.38591959    -0.11500
H398        H  0.17983484  0.68528225  0.32094805     0.08200
H399        H  0.18791006  0.81974966  0.32411403     0.05700
H400        H  0.10537248  0.75539629  0.41222213     0.05600
C401        C  0.28746790  0.63906007  0.14559553     0.02600
C402        C  0.24948045  0.63217848  0.12094312    -0.13600
C403        C  0.20973522  0.65494997  0.12750109     0.00100
C404        C  0.20824630  0.68531305  0.15910041    -0.12100
C405        C  0.24621003  0.69341110  0.18339723     0.02600
C406        C  0.28599702  0.67068525  0.17599288    -0.11500
H407        H  0.25052117  0.60822068  0.09712568     0.08200
H408        H  0.17768883  0.70285995  0.16450904     0.05700
H409        H  0.31532253  0.67679595  0.19461897     0.05600
O410        O  0.96247276  0.91013695  0.49983233    -0.80700
O411        O  0.04652912  0.04758702  0.43008357    -0.80700
O412        O  0.90268584  0.03582814  0.48449685    -0.80700
O413        O  0.07573195  0.96104173  0.46533398    -0.80600
O414        O  0.95177371  0.04419490  0.43443695    -0.80800
O415        O  0.04998867  0.91089489  0.50180930    -0.80700
O416        O  0.09738476  0.03681923  0.47748590    -0.80700
O417        O  0.92567886  0.95998589  0.47208474    -0.80700
C418        C  0.93566534  0.92226746  0.47276241     1.09000
C419        C  0.08709199  0.04970839  0.44172377     1.08900
C420        C  0.91233363  0.04911863  0.44848204     1.09000
C421        C  0.07281046  0.92291342  0.47138479     1.08900
O422        O  0.05509069  0.96040380  0.57578684    -0.80700
O423        O  0.95491677  0.08855803  0.51323456    -0.80700
O424        O  0.88948588  0.97875389  0.54832535    -0.80700
O425        O  0.05390251  0.04118524  0.55726385    -0.80700
O426        O  0.04433178  0.08769343  0.50912287    -0.80700
O427        O  0.95542042  0.96278908  0.57377555    -0.80700
O428        O  0.11481763  0.98075201  0.53947150    -0.80600
O429        O  0.95091031  0.04125357  0.56128740    -0.80700
Co430      Co  0.00506162  0.94326395  0.53417420     1.51500
Co431      Co  0.99945276  0.06210296  0.47264008     1.51700
Co432      Co  0.94074319  0.99794512  0.51787447     1.51600
Co433      Co  0.06219670  0.99826946  0.51294856     1.51500
O434        O  0.00143718  0.00165794  0.49548291    -1.42600
C435        C  0.09838134  0.96068226  0.56993845     1.08900
C436        C  0.94375392  0.07822589  0.54996694     1.09000
C437        C  0.91310740  0.95487433  0.57065198     1.09000
C438        C  0.05810083  0.07821000  0.54463311     1.08900
C439        C  0.13853316  0.82849407  0.43697273    -0.09700
C440        C  0.13490147  0.83036054  0.39365209     0.06500
C441        C  0.11441734  0.86539394  0.37568140    -0.03500
C442        C  0.09679332  0.89690249  0.40145287    -0.07900
C443        C  0.09666893  0.89252866  0.44488355     0.05600
C444        C  0.11759438  0.85760117  0.46245789    -0.02900
Br445      Br  0.11568863  0.84484105  0.52058737    -0.02600
H446        H  0.15439793  0.80195186  0.45127238     0.09500
H447        H  0.08027255  0.92328963  0.38757143     0.07600
Br448      Br  0.10468267  0.86948294  0.31707625    -0.03100
C449        C  0.88454312  0.82457809  0.42453759    -0.09700
C450        C  0.85859624  0.84243404  0.39335417     0.06500
C451        C  0.86413491  0.88497237  0.38432219    -0.03500
C452        C  0.89174922  0.90966502  0.40895571    -0.07900
C453        C  0.91442455  0.89287004  0.44303472     0.05600
C454        C  0.91274056  0.84920486  0.44915957    -0.02900
Br455      Br  0.94406956  0.82119061  0.49266005    -0.02600
H456        H  0.87988427  0.79206718  0.43215824     0.09500
H457        H  0.89328867  0.94273271  0.40278259     0.07600
Br458      Br  0.82917522  0.91207666  0.34261816    -0.03100
C459        C  0.88580627  0.08865179  0.60571484    -0.09700
C460        C  0.91520084  0.10662454  0.57634760     0.06500
C461        C  0.91152582  0.15004976  0.56921168    -0.03500
C462        C  0.87688474  0.17329383  0.58855362    -0.07900
C463        C  0.84556392  0.15421744  0.61532349     0.05600
C464        C  0.85133960  0.11177270  0.62472656    -0.02900
Br465      Br  0.81050224  0.08302073  0.66116273    -0.02600
H466        H  0.88760424  0.05565887  0.61206149     0.09500
H467        H  0.87301616  0.20585333  0.58095162     0.07600
Br468      Br  0.95212235  0.17942748  0.53300390    -0.03100
C469        C  0.15355949  0.09482210  0.44197846    -0.09700
C470        C  0.12193408  0.07306131  0.41822007     0.06500
C471        C  0.12440338  0.07592782  0.37455126    -0.03500
C472        C  0.15869250  0.09982757  0.35579464    -0.07900
C473        C  0.18992411  0.12169687  0.38013121     0.05600
C474        C  0.18594249  0.12001278  0.42367882    -0.02900
Br475      Br  0.22226762  0.15306100  0.46030894    -0.02600
H476        H  0.15223644  0.09357101  0.47555661     0.09500
H477        H  0.16174144  0.10040184  0.32228800     0.07600
Br478      Br  0.08449141  0.04543777  0.33942043    -0.03100
C479        C  0.92477127  0.41519913  0.87207163    -0.09700
C480        C  0.90597611  0.44406874  0.89999065     0.06500
C481        C  0.86070472  0.45639801  0.89454136    -0.03500
C482        C  0.83605869  0.44051401  0.86121841    -0.07900
C483        C  0.85529983  0.41191435  0.83344432     0.05600
C484        C  0.90002145  0.39927400  0.83907385    -0.02900
Br485      Br  0.92935727  0.36174529  0.80105108    -0.02600
H486        H  0.95903131  0.40442512  0.87617969     0.09500
H487        H  0.80205434  0.45152476  0.85617502     0.07600
Br488      Br  0.83094605  0.49627306  0.92978006    -0.03100
C489        C  0.96026311  0.61548412  0.12741632    -0.09700
C490        C  0.93321800  0.59617131  0.09781604     0.06500
C491        C  0.88610555  0.59657986  0.10284105    -0.03500
C492        C  0.86696131  0.61193003  0.13925582    -0.07900
C493        C  0.89421777  0.62677869  0.17094492     0.05600
C494        C  0.94082350  0.63102357  0.16408427    -0.02900
Br495      Br  0.97896228  0.65650141  0.20436266    -0.02600
H496        H  0.99612748  0.61597297  0.12341455     0.09500
H497        H  0.83112956  0.60906228  0.14421528     0.07600
Br498      Br  0.84635333  0.57243306  0.06283888    -0.03100
C499        C  0.05298768  0.37784214  0.12397004    -0.09700
C500        C  0.07958296  0.39840408  0.09444973     0.06500
C501        C  0.12679679  0.39723200  0.09777177    -0.03500
C502        C  0.14645477  0.37902117  0.13225160    -0.07900
C503        C  0.11976987  0.36198604  0.16384004     0.05600
C504        C  0.07277637  0.35977153  0.15876733    -0.02900
Br505      Br  0.03446369  0.33363368  0.19922745    -0.02600
H506        H  0.01665495  0.37782484  0.12117585     0.09500
H507        H  0.18268068  0.38049409  0.13564401     0.07600
Br508      Br  0.16600719  0.42156939  0.05672607    -0.03100
C509        C  0.09763794  0.60877545  0.09757368    -0.09700
C510        C  0.10044118  0.60902797  0.05395598     0.06500
C511        C  0.13634005  0.63041267  0.03475659    -0.03500
C512        C  0.17060701  0.64758204  0.05924290    -0.07900
C513        C  0.16924400  0.64446273  0.10287734     0.05600
C514        C  0.13127106  0.62634097  0.12196807    -0.02900
Br515      Br  0.12628217  0.61941196  0.18104223    -0.02600
H516        H  0.07089693  0.59179150  0.11284323     0.09500
H517        H  0.19949572  0.66157804  0.04412843     0.07600
Br518      Br  0.14293438  0.63256332  0.97550641    -0.03100
C519        C  0.84352005  0.34368144  0.08303716    -0.09700
C520        C  0.84578736  0.35178557  0.12602077     0.06500
C521        C  0.88351183  0.37313855  0.14117861    -0.03500
C522        C  0.91539560  0.38945198  0.11327690    -0.07900
C523        C  0.91087779  0.38491737  0.06992585     0.05600
C524        C  0.87568170  0.35982099  0.05506356    -0.02900
Br525      Br  0.86603528  0.35191363  0.99680817    -0.02600
H526        H  0.81462524  0.32736461  0.07083282     0.09500
H527        H  0.94198503  0.40889594  0.12547972     0.07600
Br528      Br  0.88975609  0.38611118  0.19905850    -0.03100
C529        C  0.87129315  0.13133731  0.37562219    -0.09700
C530        C  0.84771046  0.15657897  0.40406682     0.06500
C531        C  0.83684258  0.14095482  0.44361229    -0.03500
C532        C  0.85364798  0.10252201  0.45562040    -0.07900
C533        C  0.88222938  0.07955050  0.42905816     0.05600
C534        C  0.88857602  0.09294822  0.38778358    -0.02900
Br535      Br  0.92200769  0.06122532  0.34737929    -0.02600
H536        H  0.87860383  0.14260276  0.34464730     0.09500
H537        H  0.84751300  0.09258683  0.48725918     0.07600
Br538      Br  0.80117167  0.17158553  0.48319235    -0.03100
C539        C  0.08502707  0.58160954  0.82145670    -0.09700
C540        C  0.13134079  0.59042617  0.82340916     0.06500
C541        C  0.15535901  0.57629097  0.85790041    -0.03500
C542        C  0.13269487  0.55598913  0.89034594    -0.07900
C543        C  0.08605541  0.54818366  0.88906468     0.05600
C544        C  0.06263976  0.55978420  0.85303919    -0.02900
Br545      Br  0.00126353  0.54449863  0.84308051    -0.02600
H546        H  0.06619724  0.59091331  0.79446546     0.09500
H547        H  0.15198458  0.54643655  0.91693505     0.07600
Br548      Br  0.21943860  0.58113386  0.86114594    -0.03100
C549        C  0.16613879  0.91782787  0.57368636    -0.09700
C550        C  0.12949968  0.93519737  0.59516983     0.06500
C551        C  0.12309417  0.92484301  0.63743849    -0.03500
C552        C  0.15399523  0.89837861  0.65730886    -0.07900
C553        C  0.19053257  0.88093373  0.63517611     0.05600
C554        C  0.19494397  0.88981128  0.59234795    -0.02900
Br555      Br  0.23782046  0.86274753  0.55604355    -0.02600
H556        H  0.17110558  0.92412583  0.54090795     0.09500
H557        H  0.15013238  0.89232197  0.69021076     0.07600
Br558      Br  0.07512449  0.94831980  0.66989625    -0.03100
C559        C  0.59777876  0.88413075  0.12700703    -0.09700
C560        C  0.61135946  0.89056786  0.08549345     0.06500
C561        C  0.64485012  0.86473676  0.06822688    -0.03500
C562        C  0.66242666  0.83197477  0.09168032    -0.07900
C563        C  0.64762037  0.82456801  0.13268036     0.05600
C564        C  0.61577931  0.85170243  0.15062520    -0.02900
Br565      Br  0.59310880  0.84340213  0.20597907    -0.02600
H566        H  0.57228286  0.90397970  0.14089730     0.09500
H567        H  0.68605795  0.81070559  0.07707772     0.07600
Br568      Br  0.66388597  0.87004778  0.01141729    -0.03100
C569        C  0.45456320  0.87345520  0.89216577    -0.09700
C570        C  0.43092578  0.89521542  0.92377725     0.06500
C571        C  0.38663918  0.88197797  0.93338019    -0.03500
C572        C  0.36730365  0.84843131  0.91183784    -0.07900
C573        C  0.39096755  0.82692378  0.88061873     0.05600
C574        C  0.43513648  0.83972403  0.87091090    -0.02900
Br575      Br  0.47005800  0.81195981  0.82866626    -0.02600
H576        H  0.48839146  0.88275721  0.88363579     0.09500
H577        H  0.33396921  0.83798104  0.92067807     0.07600
Br578      Br  0.35085729  0.90655439  0.97679450    -0.03100
C579        C  0.59887786  0.10504576  0.11415416    -0.09700
C580        C  0.61017546  0.06267248  0.11154586     0.06500
C581        C  0.63926339  0.04580908  0.14118701    -0.03500
C582        C  0.65525561  0.07074056  0.17341455    -0.07900
C583        C  0.64194853  0.11246984  0.17772324     0.05600
C584        C  0.61409906  0.12987314  0.14723517    -0.02900
Br585      Br  0.59236017  0.18581230  0.15176349    -0.02600
H586        H  0.57614214  0.11827773  0.09169652     0.09500
H587        H  0.67647915  0.05678980  0.19671474     0.07600
Br588      Br  0.65734852  0.98852662  0.13972622    -0.03100
C589        C  0.34520225  0.94352786  0.14804452    -0.09700
C590        C  0.34892138  0.90025399  0.15298478     0.06500
C591        C  0.36931628  0.87669855  0.12083480    -0.03500
C592        C  0.38891000  0.89693550  0.08682490    -0.07900
C593        C  0.38896745  0.94048198  0.08392649     0.05600
C594        C  0.36494100  0.96375822  0.11401946    -0.02900
Br595      Br  0.36282573  0.02328767  0.11395189    -0.02600
H596        H  0.32910312  0.96205517  0.17220266     0.09500
H597        H  0.40709481  0.87856526  0.06382710     0.07600
Br598      Br  0.37733821  0.81756882  0.12377423    -0.03100
C599        C  0.46067430  0.11254601  0.11843593    -0.09700
C600        C  0.44377613  0.09713972  0.08083100     0.06500
C601        C  0.40328925  0.11397863  0.06555325    -0.03500
C602        C  0.38165759  0.14625489  0.08694880    -0.07900
C603        C  0.39895583  0.16223601  0.12393330     0.05600
C604        C  0.43875135  0.14508150  0.13976944    -0.02900
Br605      Br  0.46459465  0.16595149  0.18990317    -0.02600
H606        H  0.49125959  0.09967615  0.13093665     0.09500
H607        H  0.35139132  0.15955033  0.07421560     0.07600
Br608      Br  0.37325370  0.09223547  0.01756681    -0.03100
C609        C  0.55895786  0.12673951  0.89574133    -0.09700
C610        C  0.58883248  0.10371836  0.92011700     0.06500
C611        C  0.63513430  0.11484875  0.91828839    -0.03500
C612        C  0.64989961  0.14794693  0.89319354    -0.07900
C613        C  0.61978800  0.17143459  0.86990886     0.05600
C614        C  0.57383417  0.16036128  0.87136584    -0.02900
Br615      Br  0.52975796  0.19075791  0.84090521    -0.02600
H616        H  0.52389020  0.11851992  0.89537789     0.09500
H617        H  0.68489832  0.15690244  0.89370254     0.07600
Br618      Br  0.68075293  0.08847084  0.95071585    -0.03100
C619        C  0.09237903  0.10532999  0.61020449    -0.09700
C620        C  0.08388385  0.10994484  0.56756482     0.06500
C621        C  0.10154419  0.14526364  0.54663950    -0.03500
C622        C  0.12807180  0.17319765  0.56779939    -0.07900
C623        C  0.13182582  0.17164472  0.61096303     0.05600
C624        C  0.11484169  0.13670845  0.63236644    -0.02900
Br625      Br  0.11796498  0.13185171  0.69153176    -0.02600
H626        H  0.07933817  0.07858842  0.62673286     0.09500
H627        H  0.14188649  0.19939795  0.55083411     0.07600
Br628      Br  0.08789172  0.16244572  0.49080411    -0.03100
C629        C  0.39559680  0.03967631  0.84645846    -0.09700
C630        C  0.41710668  0.06106928  0.87851703     0.06500
C631        C  0.41032287  0.10439843  0.88280772    -0.03500
C632        C  0.38811194  0.12629746  0.85174619    -0.07900
C633        C  0.37097998  0.10538366  0.81715693     0.05600
C634        C  0.37160646  0.06136795  0.81646239    -0.02900
Br635      Br  0.34127467  0.02957624  0.77452516    -0.02600
H636        H  0.39792254  0.00610054  0.84447444     0.09500
H637        H  0.38706253  0.15994643  0.85321715     0.07600
Br638      Br  0.43393540  0.13603932  0.92822939    -0.03100
C639        C  0.14099835  0.36686369  0.94565101    -0.09700
C640        C  0.10419359  0.38543667  0.92656048     0.06500
C641        C  0.10370197  0.38877580  0.88292793    -0.03500
C642        C  0.14066026  0.37509173  0.85925586    -0.07900
C643        C  0.17855780  0.35844753  0.87858028     0.05600
C644        C  0.17784356  0.35309946  0.92209713    -0.02900
Br645      Br  0.22653798  0.32754672  0.95100987    -0.02600
H646        H  0.14161932  0.36412822  0.97915066     0.09500
H647        H  0.14085089  0.37960585  0.82593691     0.07600
Br648      Br  0.05562031  0.41587732  0.85471440    -0.03100
C649        C  0.87256615  0.63879478  0.86748742    -0.09700
C650        C  0.82726270  0.63183897  0.87772279     0.06500
C651        C  0.81703090  0.61734237  0.91840316    -0.03500
C652        C  0.85127284  0.60296621  0.94389735    -0.07900
C653        C  0.89645770  0.60617029  0.93204734     0.05600
C654        C  0.90692535  0.62789496  0.89485780    -0.02900
Br655      Br  0.96672020  0.64415873  0.87900271    -0.02600
H656        H  0.88166698  0.65196327  0.83750813     0.09500
H657        H  0.84225427  0.58907602  0.97365833     0.07600
Br658      Br  0.75771571  0.61886208  0.94285957    -0.03100
C659        C  0.89410922  0.85615935  0.63219242    -0.09700
C660        C  0.86467765  0.83490716  0.60580325     0.06500
C661        C  0.84866675  0.85468761  0.57010255    -0.03500
C662        C  0.86301231  0.89483939  0.56072598    -0.07900
C663        C  0.89400369  0.91559854  0.58602130     0.05600
C664        C  0.90918073  0.89619229  0.62238775    -0.02900
Br665      Br  0.94948291  0.92311000  0.66000473    -0.02600
H666        H  0.90612655  0.84116666  0.66000682     0.09500
H667        H  0.85133861  0.90914045  0.53242083     0.07600
Br668      Br  0.80749328  0.82810252  0.53300060    -0.03100
C669        C  0.64559556  0.92141749  0.81916950    -0.09700
C670        C  0.63620975  0.87852052  0.81952698     0.06500
C671        C  0.61556249  0.86110175  0.85499236    -0.03500
C672        C  0.60348769  0.88671175  0.88869455    -0.07900
C673        C  0.61106086  0.92979707  0.88736109     0.05600
C674        C  0.63310119  0.94702600  0.85258152    -0.02900
Br675      Br  0.64683650  0.00533115  0.84939305    -0.02600
H676        H  0.66145076  0.93524929  0.79214239     0.09500
H677        H  0.58601247  0.87328443  0.91507617     0.07600
Br678      Br  0.59924942  0.80346546  0.85723230    -0.03100
C679        C  0.45055821  0.37064818  0.11549425    -0.09700
C680        C  0.43280741  0.38555128  0.07822319     0.06500
C681        C  0.39587892  0.36481590  0.06036651    -0.03500
C682        C  0.37804864  0.32950329  0.07944283    -0.07900
C683        C  0.39597513  0.31480424  0.11647599     0.05600
C684        C  0.43246046  0.33541806  0.13462047    -0.02900
Br685      Br  0.45805241  0.31658968  0.18559241    -0.02600
H686        H  0.47776052  0.38711061  0.13038522     0.09500
H687        H  0.35014807  0.31332618  0.06529419     0.07600
Br688      Br  0.36876025  0.38230348  0.00969089    -0.03100
C689        C  0.63252653  0.33418217  0.92430053    -0.09700
C690        C  0.61424478  0.32341182  0.88588747     0.06500
C691        C  0.57642651  0.34478512  0.87167480    -0.03500
C692        C  0.55828532  0.37744768  0.89522355    -0.07900
C693        C  0.57738253  0.38973416  0.93324004     0.05600
C694        C  0.61477861  0.36702482  0.94799465    -0.02900
Br695      Br  0.64433801  0.37866941  0.99952631    -0.02600
H696        H  0.66101510  0.31697102  0.93582874     0.09500
H697        H  0.52974943  0.39401921  0.88295321     0.07600
Br698      Br  0.54861497  0.33031592  0.82015735    -0.03100
C699        C  0.64903561  0.37118021  0.13673884    -0.09700
C700        C  0.68671336  0.39129226  0.15314108     0.06500
C701        C  0.68723524  0.43521290  0.15471704    -0.03500
C702        C  0.65074325  0.45808307  0.13963144    -0.07900
C703        C  0.61342496  0.43791972  0.12253181     0.05600
C704        C  0.61303759  0.39402835  0.12092130    -0.02900
Br705      Br  0.56624900  0.36369152  0.09394030    -0.02600
H706        H  0.64856471  0.33756169  0.13440610     0.09500
H707        H  0.65211272  0.49174827  0.14010618     0.07600
Br708      Br  0.73728317  0.46533435  0.17680654    -0.03100
C709        C  0.64472939  0.61965172  0.86167991    -0.09700
C710        C  0.67480447  0.59668867  0.83684426     0.06500
C711        C  0.66949803  0.55321140  0.83376301    -0.03500
C712        C  0.63488928  0.53342449  0.85593237    -0.07900
C713        C  0.60647285  0.55627271  0.88245953     0.05600
C714        C  0.61140706  0.59972574  0.88512111    -0.02900
Br715      Br  0.57619841  0.63278855  0.92296173    -0.02600
H716        H  0.64948381  0.65288762  0.86545224     0.09500
H717        H  0.63169302  0.49987773  0.85421842     0.07600
Br718      Br  0.71051891  0.51952058  0.80195594    -0.03100
C719        C  0.60882534  0.63356976  0.06304123    -0.09700
C720        C  0.58012676  0.60676268  0.08540169     0.06500
C721        C  0.57510036  0.61349496  0.12889016    -0.03500
C722        C  0.59839587  0.64597602  0.14841523    -0.07900
C723        C  0.62703745  0.67236022  0.12591207     0.05600
C724        C  0.63219021  0.66579141  0.08274426    -0.02900
Br725      Br  0.67296347  0.69821240  0.04941574    -0.02600
H726        H  0.61421496  0.62883974  0.03004609     0.09500
H727        H  0.59381174  0.65090659  0.18148641     0.07600
Br728      Br  0.53893872  0.57906785  0.16473079    -0.03100
C729        C  0.36570018  0.65388066  0.92123696    -0.09700
C730        C  0.39022998  0.67405984  0.88999015     0.06500
C731        C  0.43403160  0.66073152  0.88020917    -0.03500
C732        C  0.45284707  0.62767831  0.90187205    -0.07900
C733        C  0.42884860  0.60770779  0.93382362     0.05600
C734        C  0.38451940  0.62102737  0.94330208    -0.02900
Br735      Br  0.34795718  0.59728361  0.98678511    -0.02600
H736        H  0.33226623  0.66446646  0.92920602     0.09500
H737        H  0.48574765  0.61686102  0.89284358     0.07600
Br738      Br  0.46895044  0.68592794  0.83665105    -0.03100
C739        C  0.36787476  0.63128488  0.12344567    -0.09700
C740        C  0.32842240  0.61297544  0.13905050     0.06500
C741        C  0.32750798  0.56939206  0.14466249    -0.03500
C742        C  0.36446309  0.54483838  0.13242851    -0.07900
C743        C  0.40255222  0.56286209  0.11379320     0.05600
C744        C  0.40436179  0.60668529  0.11037484    -0.02900
Br745      Br  0.45454032  0.63410911  0.08441030    -0.02600
H746        H  0.36924785  0.66464759  0.11891305     0.09500
H747        H  0.36182221  0.51127631  0.13426979     0.07600
Br748      Br  0.27553453  0.54175049  0.16699801    -0.03100
C749        C  0.34312608  0.42971618  0.85153497    -0.09700
C750        C  0.34067924  0.38654281  0.85773846     0.06500
C751        C  0.37251652  0.36732113  0.88325314    -0.03500
C752        C  0.40458022  0.39156009  0.90371192    -0.07900
C753        C  0.40541593  0.43504239  0.89940314     0.05600
C754        C  0.37517479  0.45400457  0.87201842    -0.02900
Br755      Br  0.37214565  0.51328443  0.86574270    -0.02600
H756        H  0.31827441  0.44488373  0.83260032     0.09500
H757        H  0.42748232  0.37662582  0.92480874     0.07600
Br758      Br  0.37026310  0.30887109  0.89489042    -0.03100
C759        C  0.11245957  0.46296327  0.34501119    -0.09700
C760        C  0.07718740  0.44539393  0.36840037     0.06500
C761        C  0.06825244  0.40233742  0.36320083    -0.03500
C762        C  0.09424272  0.37790538  0.33603490    -0.07900
C763        C  0.12937855  0.39515140  0.31267330     0.05600
C764        C  0.13805398  0.43830958  0.31699594    -0.02900
Br765      Br  0.18446908  0.46466587  0.28485016    -0.02600
H766        H  0.12051519  0.49561509  0.34887359     0.09500
H767        H  0.08554321  0.34543560  0.33165889     0.07600
Br768      Br  0.01896320  0.37509494  0.39081539    -0.03100
C769        C  0.93866915  0.52090943  0.33791468    -0.09700
C770        C  0.90901419  0.50353027  0.36688895     0.06500
C771        C  0.86374874  0.51650625  0.36667242    -0.03500
C772        C  0.84940138  0.54711648  0.33850923    -0.07900
C773        C  0.88027204  0.56711729  0.31174427     0.05600
C774        C  0.92572937  0.55382417  0.31267988    -0.02900
Br775      Br  0.97452698  0.58353291  0.28695353    -0.02600
H776        H  0.97386113  0.51288181  0.33874673     0.09500
H777        H  0.81439256  0.55602850  0.33840693     0.07600
Br778      Br  0.82122827  0.49432415  0.40584475    -0.03100
C779        C  0.07831343  0.58840731  0.62453928    -0.09700
C780        C  0.08667278  0.54597609  0.61654602     0.06500
C781        C  0.12412502  0.52738881  0.63495843    -0.03500
C782        C  0.15067308  0.55053439  0.66273197    -0.07900
C783        C  0.14093967  0.59257801  0.67223183     0.05600
C784        C  0.10469597  0.61151794  0.65205121    -0.02900
Br785      Br  0.08714743  0.66778314  0.66390352    -0.02600
H786        H  0.05027345  0.60361360  0.60973766     0.09500
H787        H  0.17791650  0.53512193  0.67848603     0.07600
Br788      Br  0.14056677  0.47113280  0.62220654    -0.03100
C789        C  0.90311534  0.45112407  0.69270995    -0.09700
C790        C  0.85822236  0.43871164  0.68620415     0.06500
C791        C  0.83641259  0.45428665  0.65089404    -0.03500
C792        C  0.86043900  0.47869930  0.62183915    -0.07900
C793        C  0.90563807  0.49019830  0.62820032     0.05600
C794        C  0.92610724  0.47735152  0.66513807    -0.02900
Br795      Br  0.98649273  0.49228529  0.67878602    -0.02600
H796        H  0.92078109  0.44024967  0.71978225     0.09500
H797        H  0.84414576  0.48769198  0.59335893     0.07600
Br798      Br  0.77385643  0.44453129  0.64164842    -0.03100
C799        C  0.09258183  0.34360479  0.61601834    -0.09700
C800        C  0.12952446  0.32150208  0.60072004     0.06500
C801        C  0.14126380  0.32526139  0.55816352    -0.03500
C802        C  0.11642558  0.35123838  0.53190455    -0.07900
C803        C  0.07907747  0.37304538  0.54731557     0.05600
C804        C  0.06745386  0.36896602  0.58995748    -0.02900
Br805      Br  0.01596594  0.39557391  0.61455496    -0.02600
H806        H  0.08179697  0.33941458  0.64796993     0.09500
H807        H  0.12649797  0.35464302  0.49969149     0.07600
Br808      Br  0.19009591  0.29404390  0.53447572    -0.03100
C809        C  0.93557698  0.33257376  0.47103001    -0.09700
C810        C  0.90950005  0.36453945  0.48863874     0.06500
C811        C  0.86364794  0.36653946  0.47810092    -0.03500
C812        C  0.84499881  0.33778755  0.44997180    -0.07900
C813        C  0.87155361  0.30682889  0.43102313     0.05600
C814        C  0.91741957  0.30440954  0.44223513    -0.02900
Br815      Br  0.95833408  0.26589161  0.41612911    -0.02600
H816        H  0.97131559  0.33167678  0.47684018     0.09500
H817        H  0.80962136  0.33968630  0.44285608     0.07600
Br818      Br  0.82576448  0.40938487  0.50064895    -0.03100
C819        C  0.93601257  0.65580169  0.52962762    -0.09700
C820        C  0.90777051  0.62620759  0.51120363     0.06500
C821        C  0.86188833  0.62638877  0.52294557    -0.03500
C822        C  0.84516457  0.65568690  0.55203188    -0.07900
C823        C  0.87383251  0.68451535  0.57133870     0.05600
C824        C  0.91995636  0.68384466  0.55986759    -0.02900
Br825      Br  0.96406385  0.71704590  0.58794240    -0.02600
H826        H  0.97176296  0.65476061  0.52327689     0.09500
H827        H  0.80968544  0.65573148  0.55975931     0.07600
Br828      Br  0.82127319  0.58590997  0.50085814    -0.03100
C829        C  0.07035641  0.62337715  0.40001221    -0.09700
C830        C  0.07600155  0.62215086  0.44347174     0.06500
C831        C  0.10719359  0.64921328  0.46161219    -0.03500
C832        C  0.13153552  0.67707538  0.43638154    -0.07900
C833        C  0.12484221  0.67908924  0.39295695     0.05600
C834        C  0.09391012  0.65162503  0.37496643    -0.02900
Br835      Br  0.07942941  0.65402635  0.31711534    -0.02600
H836        H  0.04651439  0.60262328  0.38539973     0.09500
H837        H  0.15454438  0.69862483  0.45096079     0.07600
Br838      Br  0.11795390  0.64868690  0.52017949    -0.03100
C839        C  0.45873783  0.09465182  0.62546598    -0.09700
C840        C  0.43153410  0.06649805  0.60372929     0.06500
C841        C  0.38547550  0.06308434  0.61487710    -0.03500
C842        C  0.36759492  0.08836072  0.64613252    -0.07900
C843        C  0.39461122  0.11670467  0.66730064     0.05600
C844        C  0.44060793  0.11951067  0.65723796    -0.02900
Br845      Br  0.47958729  0.15700855  0.68603636    -0.02600
H846        H  0.49389982  0.09803258  0.61718070     0.09500
H847        H  0.33264606  0.08474135  0.65515975     0.07600
Br848      Br  0.34499437  0.02323548  0.59073168    -0.03100
C849        C  0.62991378  0.89906226  0.64923342    -0.09700
C850        C  0.60687434  0.86725540  0.66981084     0.06500
C851        C  0.56326929  0.85638467  0.65716411    -0.03500
C852        C  0.54351921  0.87727350  0.62382551    -0.07900
C853        C  0.56665025  0.90944603  0.60339459     0.05600
C854        C  0.61044683  0.92000167  0.61624371    -0.02900
Br855      Br  0.64732074  0.96033984  0.58813986    -0.02600
H856        H  0.66337489  0.90766547  0.65897722     0.09500
H857        H  0.51013288  0.86855992  0.61398869     0.07600
Br858      Br  0.53001294  0.81317425  0.68445676    -0.03100
C859        C  0.41163672  0.08944750  0.38563276    -0.09700
C860        C  0.41634835  0.09987789  0.42775630     0.06500
C861        C  0.39330938  0.13462924  0.44402698    -0.03500
C862        C  0.36196635  0.15502375  0.41935009    -0.07900
C863        C  0.35366495  0.14137556  0.37866870     0.05600
C864        C  0.38043749  0.10986755  0.36107547    -0.02900
Br865      Br  0.37099557  0.08972134  0.30571500    -0.02600
H866        H  0.42957639  0.06296971  0.37272789     0.09500
H867        H  0.34108723  0.17909400  0.43314399     0.07600
Br868      Br  0.39772735  0.15120922  0.50120587    -0.03100
C869        C  0.37474130  0.88857560  0.64589459    -0.09700
C870        C  0.35047215  0.85282349  0.63541005     0.06500
C871        C  0.35983976  0.83273555  0.59727852    -0.03500
C872        C  0.38839744  0.85165206  0.56798800    -0.07900
C873        C  0.40829064  0.89030851  0.57654482     0.05600
C874        C  0.40424298  0.90684647  0.61721738    -0.02900
Br875      Br  0.43732719  0.95484052  0.63516666    -0.02600
H876        H  0.36838373  0.90393463  0.67540330     0.09500
H877        H  0.39209728  0.83776549  0.53743028     0.07600
Br878      Br  0.32978739  0.78223491  0.58196901    -0.03100
C879        C  0.58163625  0.10383476  0.39303926    -0.09700
C880        C  0.59140983  0.06133657  0.39835894     0.06500
C881        C  0.61839972  0.04111808  0.36840540    -0.03500
C882        C  0.63651166  0.06384735  0.33502154    -0.07900
C883        C  0.62749214  0.10659197  0.33043709     0.05600
C884        C  0.59902492  0.12631906  0.35951663    -0.02900
Br885      Br  0.57994354  0.18296919  0.35328876    -0.02600
H886        H  0.55991357  0.11982271  0.41513551     0.09500
H887        H  0.65702868  0.04787419  0.31196818     0.07600
Br888      Br  0.62714851  0.98221619  0.36882082    -0.03100
C889        C  0.36329168  0.92118528  0.38012183    -0.09700
C890        C  0.41046713  0.92292922  0.38221982     0.06500
C891        C  0.43557497  0.91476187  0.34529712    -0.03500
C892        C  0.41364708  0.90257245  0.30889438    -0.07900
C893        C  0.36676149  0.89893874  0.30763071     0.05600
C894        C  0.34150211  0.90978345  0.34336262    -0.02900
Br895      Br  0.27708289  0.91173690  0.34296499    -0.02600
H896        H  0.34303651  0.92853547  0.40727025     0.09500
H897        H  0.43350633  0.89523026  0.28146608     0.07600
Br898      Br  0.49968335  0.92097646  0.34098492    -0.03100
C899        C  0.63156897  0.14189421  0.54341587    -0.09700
C900        C  0.61168679  0.10772297  0.56361883     0.10900
C901        C  0.62587074  0.09821697  0.60434249    -0.03500
C902        C  0.65973318  0.12173496  0.62334923    -0.07900
C903        C  0.68050859  0.15496860  0.60266761     0.05600
C904        C  0.66575989  0.16526102  0.56250019    -0.02900
Br905      Br  0.69178704  0.21085482  0.53257426    -0.02600
H906        H  0.62169501  0.14951151  0.51208040     0.09500
H907        H  0.67086738  0.11322450  0.65409021     0.07600
Br908      Br  0.59959608  0.05391965  0.63616764    -0.03100
C909        C  0.62228700  0.86106460  0.43502699    -0.09700
C910        C  0.63219126  0.90151181  0.44871394     0.06500
C911        C  0.67555897  0.91760439  0.44302146    -0.03500
C912        C  0.70710357  0.89446267  0.42082516    -0.07900
C913        C  0.69800693  0.85342245  0.40754334     0.05600
C914        C  0.65518353  0.83638743  0.41586736    -0.02900
Br915      Br  0.64044834  0.77914880  0.40567767    -0.02600
H916        H  0.58914324  0.84814756  0.44052785     0.09500
H917        H  0.73940935  0.90870316  0.41449798     0.07600
Br918      Br  0.69350439  0.97132110  0.46353155    -0.03100
loop_ 
_geom_bond_atom_site_label_1 
_geom_bond_atom_site_label_2 
_geom_bond_distance 
_geom_bond_site_symmetry_2 
_ccdc_geom_bond_type 
O1            C9   1.254       .  A
O1          Co21   1.972       .  S
O2           C10   1.262       .  A
O2          Co22   1.961   1_545  S
O3           C11   1.258       .  A
O3          Co23   1.966       .  S
O4           C12   1.245       .  A
O4          Co24   1.948       .  S
O5           C11   1.271       .  A
O5          Co22   2.022       .  S
O6           C12   1.265       .  A
O6          Co21   2.037   1_545  S
O7           C10   1.271       .  A
O7          Co24   2.012       .  S
O8            C9   1.258       .  A
O8          Co23   1.976       .  S
C9          C910   1.460       .  S
C10         C860   1.468       .  S
C11         C890   1.499       .  S
C12         C880   1.483       .  S
O13          C26   1.277       .  A
O13         Co21   2.034   1_545  S
O14          C27   1.253       .  A
O14         Co22   1.959       .  S
O15          C28   1.277       .  A
O15         Co23   2.037       .  S
O16          C29   1.262       .  A
O16         Co24   1.985       .  S
O17          C29   1.258       .  A
O17         Co22   1.979   1_545  S
O18          C28   1.259       .  A
O18         Co21   1.942       .  S
O19          C26   1.273       .  A
O19         Co24   1.971       .  S
O20          C27   1.266       .  A
O20         Co23   2.017       .  S
Co21         O25   2.078       .  S
Co22         O25   2.048       .  S
Co23         O25   2.097       .  S
Co24         O25   2.008   1_545  S
C26         C900   1.496       .  S
C27         C873   1.485       .  S
C28         C853   1.473       .  S
C29         C840   1.476       .  S
O30          C38   1.230       .  A
O30         Co50   1.946       .  S
O31          C39   1.228       .  A
O31         Co51   1.941       .  S
O32          C40   1.233       .  A
O32         Co52   1.951       .  S
O33          C41   1.232       .  A
O33         Co53   1.942       .  S
O34          C40   1.267       .  A
O34         Co51   2.077       .  S
O35          C41   1.270       .  A
O35         Co50   2.087       .  S
O36          C39   1.268       .  A
O36         Co53   2.098       .  S
O37          C38   1.271       .  A
O37         Co52   2.096       .  S
C38         C820   1.490       .  S
C39         C810   1.485       .  S
C40         C770   1.478       .  S
C41         C793   1.487       .  S
O42          C55   1.234       .  A
O42         Co50   1.928   1_455  S
O43          C56   1.237       .  A
O43         Co51   1.936   1_455  S
O44          C57   1.234       .  A
O44         Co52   1.924   1_455  S
O45          C58   1.231       .  A
O45         Co53   1.931   1_455  S
O46          C58   1.271       .  A
O46         Co51   2.093   1_455  S
O47          C57   1.274       .  A
O47         Co50   2.091   1_455  S
O48          C55   1.274       .  A
O48         Co53   2.087   1_455  S
O49          C56   1.277       .  A
O49         Co52   2.105   1_455  S
Co50         O54   2.133       .  S
Co51         O54   2.133       .  S
Co52         O54   2.126       .  S
Co53         O54   2.122       .  S
C55         C780   1.487       .  S
C56         C760   1.496       .  S
C57         C830   1.485       .  S
C58         C803   1.483       .  S
O59          C67   1.256       .  A
O59         Co79   1.975   1_556  S
O60          C68   1.292       .  A
O60         Co80   2.078       .  S
O61          C69   1.256       .  A
O61         Co81   1.982       .  S
O62          C70   1.260       .  A
O62         Co82   1.970       .  S
O63          C69   1.252       .  A
O63         Co80   1.973   1_556  S
O64          C70   1.263       .  A
O64         Co79   1.997       .  S
O65          C68   1.270       .  A
O65         Co82   1.912       .  S
O66          C67   1.265       .  A
O66         Co81   2.019       .  S
C67         C753   1.478       .  S
C68         C703   1.483       .  S
C69         C693   1.491       .  S
C70         C680   1.471       .  S
O71          C84   1.253       .  A
O71         Co79   1.955       .  S
O72          C85   1.294       .  A
O72         Co80   2.086   1_556  S
O73          C86   1.266       .  A
O73         Co81   1.976       .  S
O74          C87   1.258       .  A
O74         Co82   1.993       .  S
O75          C87   1.258       .  A
O75         Co80   1.975       .  S
O76          C86   1.264       .  A
O76         Co79   1.994   1_556  S
O77          C84   1.278       .  A
O77         Co82   2.052       .  S
O78          C85   1.262       .  A
O78         Co81   1.889       .  S
Co79         O83   2.053       .  S
Co80         O83   2.188       .  S
Co81         O83   1.979   1_556  S
Co82         O83   1.990       .  S
C84         C743   1.484       .  S
C85         C713   1.469       .  S
C86         C733   1.478       .  S
C87         C720   1.497       .  S
C88         C670   1.485       .  S
C88          C89   1.412       .  A
C88          C93   1.399       .  A
C89          C90   1.414       .  A
C89          H94   1.082       .  S
C90         C101   1.490       .  S
C90          C91   1.410       .  A
C91          C92   1.405       .  A
C91          H95   1.085       .  S
C92         C850   1.474       .  S
C92          C93   1.395       .  A
C93          H96   1.085       .  S
C97         C116   1.482       .  S
C97          N98   1.369       .  A
C97         N102   1.363       .  A
N98          C99   1.365       .  A
C99         C105   1.497       .  S
C99         N100   1.365       .  A
N100        C101   1.359       .  A
C101        N102   1.358       .  A
C103        C823   1.506       .  S
C103        C104   1.428       .  A
C103        C108   1.403       .  A
C104        C105   1.426       .  A
C104        H109   1.083       .  S
C105        C106   1.403       .  A
C106        C107   1.392       .  A
C106        H110   1.084       .  S
C107        C660   1.470       .  S
C107        C108   1.395       .  A
C108        H111   1.085       .  S
C112        C650   1.501       .  S
C112        C113   1.401       .  A
C112        C117   1.419       .  A
C113        C114   1.394       .  A
C113        H118   1.084       .  S
C114        C710   1.476       .  S
C114        C115   1.400       .  A
C115        C116   1.406       .  A
C115        H119   1.083       .  S
C116        C117   1.415       .  A
C117        H120   1.082       .  S
C121        C138   1.481       .  S
C121        N122   1.360       .  A
C121        N126   1.358       .  A
N122        C123   1.362       .  A
C123        C129   1.478       .  S
C123        N124   1.363       .  A
N124        C125   1.361       .  A
C125        C147   1.483       .  S
C125        N126   1.360       .  A
C127        C750   1.481       .  S
C127        C128   1.406       .  A
C127        C132   1.400       .  A
C128        C129   1.410       .  A
C128        H133   1.084       .  S
C129        C130   1.409       .  A
C130        C131   1.405       .  A
C130        H134   1.084       .  S
C131        C643   1.483       .  S
C131        C132   1.401       .  A
C132        H135   1.085       .  S
C136        C633   1.481       .  S
C136        C137   1.409       .  A
C136        C141   1.396       .  A
C137        C138   1.413       .  A
C137        H142   1.083       .  S
C138        C139   1.409       .  A
C139        C140   1.402       .  A
C139        H143   1.084       .  S
C140        C843   1.468       .  S
C140        C141   1.389       .  A
C141        H144   1.085       .  S
C145        C623   1.479       .  S
C145        C146   1.399       .  A
C145        C150   1.398       .  A
C146        C147   1.411       .  A
C146        H151   1.083       .  S
C147        C148   1.419       .  A
C148        C149   1.410       .  A
C148        H152   1.082       .  S
C149        C800   1.481       .  S
C149        C150   1.387       .  A
C150        H153   1.087       .  S
O154        C162   1.267       .  A
O154       Co174   1.999       .  S
O155        C163   1.258       .  A
O155       Co175   1.981       .  S
O156        C164   1.274       .  A
O156       Co176   2.035       .  S
O157        C165   1.266       .  A
O157       Co177   2.033   1_565  S
O158        C164   1.260       .  A
O158       Co175   1.959       .  S
O159        C165   1.254       .  A
O159       Co174   1.978       .  S
O160        C163   1.257       .  A
O160       Co177   2.004   1_564  S
O161        C162   1.266       .  A
O161       Co176   1.992   1_556  S
C162        C673   1.474       .  S
C163        C593   1.479       .  S
C164        C560   1.486       .  S
C165        C570   1.505       .  S
O166        C179   1.272       .  A
O166       Co174   1.952   1_545  S
O167        C180   1.266       .  A
O167       Co175   2.006   1_545  S
O168        C181   1.263       .  A
O168       Co176   2.000   1_546  S
O169        C182   1.257       .  A
O169       Co177   1.937   1_554  S
O170        C182   1.279       .  A
O170       Co175   2.053   1_545  S
O171        C181   1.268       .  A
O171       Co174   2.004   1_545  S
O172        C179   1.275       .  A
O172       Co177   2.021       .  S
O173        C180   1.260       .  A
O173       Co176   1.985   1_545  S
Co174       O178   1.996   1_556  S
Co175       O178   2.083       .  S
Co176       O178   2.064       .  S
Co177       O178   2.093   1_546  S
C179        C630   1.474       .  S
C180        C580   1.478       .  S
C181        C610   1.506       .  S
C182        C600   1.483       .  S
C183        C191   1.499       .  S
C183        N184   1.352       .  A
C183        N188   1.369       .  A
N184        C185   1.357       .  A
C185        C202   1.483       .  S
C185        N186   1.368       .  A
N186        C187   1.371       .  A
C187        C211   1.510       .  S
C187        N188   1.372       .  A
C189        C730   1.470       .  S
C189        C190   1.404       .  A
C189        C194   1.397       .  A
C190        C191   1.406       .  A
C190        H195   1.085       .  S
C191        C192   1.425       .  A
C192        C193   1.416       .  A
C192        H196   1.082       .  S
C193        C573   1.492       .  S
C193        C194   1.395       .  A
C194        H197   1.085       .  S
C198        C553   1.495       .  S
C198        C199   1.401       .  A
C198        C203   1.417       .  A
C199        C200   1.392       .  A
C199        H204   1.085       .  S
C200        C870   1.478       .  S
C200        C201   1.397       .  A
C201        C202   1.412       .  A
C201        H205   1.084       .  S
C202        C203   1.418       .  A
C203        H206   1.083       .  S
C207        C783   1.493       .  S
C207        C208   1.392       .  A
C207        C212   1.420       .  A
C208        C209   1.393       .  A
C208        H213   1.086       .  S
C209        C540   1.491       .  S
C209        C210   1.413       .  A
C210        C211   1.418       .  A
C210        H214   1.083       .  S
C211        C212   1.425       .  A
C212        H215   1.083       .  S
C216        C233   1.487       .  S
C216        N217   1.374       .  A
C216        N221   1.368       .  A
N217        C218   1.367       .  A
C218        C224   1.500       .  S
C218        N219   1.361       .  A
N219        C220   1.354       .  A
C220        C244   1.497       .  S
C220        N221   1.360       .  A
C222        C530   1.473       .  S
C222        C223   1.389       .  A
C222        C227   1.395       .  A
C223        C224   1.406       .  A
C223        H228   1.085       .  S
C224        C225   1.426       .  A
C225        C226   1.430       .  A
C225        H229   1.083       .  S
C226        C813   1.503       .  S
C226        C227   1.402       .  A
C227        H230   1.084       .  S
C231        C520   1.493       .  S
C231        C232   1.414       .  A
C231        C236   1.405       .  A
C232        C233   1.414       .  A
C232        H237   1.084       .  S
C233        C234   1.410       .  A
C234        C235   1.406       .  A
C234        H238   1.084       .  S
C235        C700   1.489       .  S
C235        C236   1.401       .  A
C236        H239   1.084       .  S
C240        C883   1.485       .  S
C240        C241   1.394       .  A
C240        C245   1.405       .  A
C241        C242   1.401       .  A
C241        H246   1.083       .  S
C242        C583   1.487       .  S
C242        C243   1.414       .  A
C243        C244   1.417       .  A
C243        H247   1.084       .  S
C244        C245   1.414       .  A
C245        H248   1.084       .  S
O249        C257   1.314       .  A
O249       Co269   2.138   1_556  S
O250        C258   1.303       .  A
O250       Co270   2.103   1_556  S
O251        C259   1.260       .  A
O251       Co271   1.973   1_455  S
O252        C260   1.264       .  A
O252       Co272   1.978   1_655  S
O253        C259   1.266       .  A
O253       Co270   2.004   1_556  S
O254        C260   1.261       .  A
O254       Co269   1.995   1_556  S
O255        C258   1.275       .  A
O255       Co272   1.886       .  S
O256        C257   1.270       .  A
O256       Co271   1.867       .  S
C257        C653   1.493       .  S
C258        C640   1.471       .  S
C259        C543   1.493       .  S
C260        C480   1.483       .  S
O261        C274   1.257       .  A
O261       Co269   1.964       .  S
O262        C275   1.255       .  A
O262       Co270   1.957       .  S
O263        C276   1.257       .  A
O263       Co271   2.030   1_554  S
O264        C277   1.260       .  A
O264       Co272   2.035   1_554  S
O265        C277   1.243       .  A
O265       Co270   1.929       .  S
O266        C276   1.239       .  A
O266       Co269   1.919       .  S
O267        C274   1.277       .  A
O267       Co272   2.047   1_654  S
O268        C275   1.272   1_556  A
O268       Co271   2.041   1_455  S
Co269       O273   2.081   1_655  S
Co270       O273   2.082       .  S
Co271       O273   1.994   1_656  S
Co272       O273   1.994   1_556  S
C274        C523   1.492       .  S
C275        C510   1.482       .  S
C276        C490   1.458       .  S
C277        C500   1.468       .  S
C278        C473   1.482       .  S
C278        C279   1.407       .  A
C278        C283   1.400       .  A
C279        C280   1.409       .  A
C279        H284   1.084       .  S
C280        C287   1.472       .  S
C280        C281   1.408       .  A
C281        C282   1.396       .  A
C281        H285   1.084       .  S
C282        C863   1.470       .  S
C282        C283   1.394       .  A
C283        H286   1.084       .  S
C287        N288   1.357       .  A
C287        N292   1.365       .  A
N288        C289   1.352       .  A
C289        C304   1.489       .  S
C289        N290   1.366       .  A
N290        C291   1.368       .  A
C291        C295   1.498       .  S
C291        N292   1.363       .  A
C293        C763   1.494       .  S
C293        C294   1.422       .  A
C293        C298   1.396       .  A
C294        C295   1.425       .  A
C294        H299   1.083       .  S
C295        C296   1.407       .  A
C296        C297   1.401       .  A
C296        H300   1.083       .  S
C297        C503   1.474       .  S
C297        C298   1.396       .  A
C298        H301   1.086       .  S
C302        C683   1.463       .  S
C302        C303   1.399       .  A
C302        C307   1.393       .  A
C303        C304   1.403       .  A
C303        H308   1.084       .  S
C304        C305   1.421       .  A
C305        C306   1.414       .  A
C305        H309   1.084       .  S
C306        C603   1.482       .  S
C306        C307   1.395       .  A
C307        H310   1.085       .  S
C311        C319   1.509       .  S
C311        N312   1.365       .  A
C311        N316   1.368       .  A
N312        C313   1.364       .  A
C313        C328   1.510       .  S
C313        N314   1.365       .  A
N314        C315   1.372       .  A
C315        C337   1.501       .  S
C315        N316   1.373       .  A
C317        C790   1.506       .  S
C317        C318   1.429       .  A
C317        C322   1.399       .  A
C318        C319   1.429       .  A
C318        H323   1.081       .  S
C319        C320   1.413       .  A
C320        C321   1.400       .  A
C320        H324   1.084       .  S
C321        C483   1.474       .  S
C321        C322   1.388       .  A
C322        H325   1.086       .  S
C326        C613   1.496       .  S
C326        C327   1.425       .  A
C326        C331   1.398       .  A
C327        C328   1.427       .  A
C327        H332   1.083       .  S
C328        C329   1.413       .  A
C329        C330   1.402       .  A
C329        H333   1.084       .  S
C330        C690   1.475       .  S
C330        C331   1.391       .  A
C331        H334   1.085       .  S
C335        C903   1.493       .  S
C335        C336   1.410       .  A
C335        C340   1.400       .  A
C336        C337   1.416       .  A
C336        H341   1.084       .  S
C337        C338   1.420       .  A
C338        C339   1.416       .  A
C338        H342   1.083       .  S
C339        C463   1.496       .  S
C339        C340   1.404       .  A
C340        H343   1.085       .  S
C344        C352   1.483       .  S
C344        N345   1.362       .  A
C344        N349   1.368       .  A
N345        C346   1.356       .  A
C346        C363   1.481       .  S
C346        N347   1.363       .  A
N347        C348   1.361       .  A
C348        C372   1.499       .  S
C348        N349   1.366       .  A
C350        C913   1.486       .  S
C350        C351   1.410       .  A
C350        C355   1.397       .  A
C351        C352   1.410       .  A
C351        H356   1.082       .  S
C352        C353   1.414       .  A
C353        C354   1.402       .  A
C353        H357   1.082       .  S
C354        C450   1.474       .  S
C354        C355   1.389       .  A
C355        H358   1.085       .  S
C359        C493   1.464       .  S
C359        C360   1.393       .  A
C359        C364   1.389       .  A
C360        C361   1.402       .  A
C360        H365   1.083       .  S
C361        C773   1.506       .  S
C361        C362   1.424       .  A
C362        C363   1.423       .  A
C362        H366   1.083       .  S
C363        C364   1.399       .  A
C364        H367   1.085       .  S
C368        C563   1.487       .  S
C368        C369   1.398       .  A
C368        C373   1.414       .  A
C369        C370   1.396       .  A
C369        H374   1.085       .  S
C370        C723   1.489       .  S
C370        C371   1.410       .  A
C371        C372   1.416       .  A
C371        H375   1.084       .  S
C372        C373   1.417       .  A
C373        H376   1.083       .  S
C377        C394   1.496       .  S
C377        N378   1.358       .  A
C377        N382   1.366       .  A
N378        C379   1.355       .  A
C379        C385   1.481       .  S
C379        N380   1.359       .  A
N380        C381   1.362       .  A
C381        C405   1.481       .  S
C381        N382   1.370       .  A
C383        C893   1.491       .  S
C383        C384   1.403       .  A
C383        C388   1.404       .  A
C384        C385   1.406       .  A
C384        H389   1.083       .  S
C385        C386   1.406       .  A
C386        C387   1.408       .  A
C386        H390   1.084       .  S
C387        C590   1.488       .  S
C387        C388   1.410       .  A
C388        H391   1.083       .  S
C392        C833   1.491       .  S
C392        C393   1.419       .  A
C392        C397   1.391       .  A
C393        C394   1.421       .  A
C393        H398   1.083       .  S
C394        C395   1.415       .  A
C395        C396   1.399       .  A
C395        H399   1.082       .  S
C396        C440   1.482       .  S
C396        C397   1.393       .  A
C397        H400   1.086       .  S
C401        C740   1.494       .  S
C401        C402   1.407       .  A
C401        C406   1.409       .  A
C402        C403   1.407       .  A
C402        H407   1.085       .  S
C403        C513   1.489       .  S
C403        C404   1.408       .  A
C404        C405   1.406       .  A
C404        H408   1.084       .  S
C405        C406   1.411       .  A
C406        H409   1.083       .  S
O410        C418   1.253       .  A
O410       Co430   1.997   1_655  S
O411        C419   1.271       .  A
O411       Co431   2.004   1_455  S
O412        C420   1.268       .  A
O412       Co432   1.992   1_545  S
O413        C421   1.245       .  A
O413       Co433   1.979       .  S
O414        C420   1.264       .  A
O414       Co431   1.974       .  S
O415        C421   1.249       .  A
O415       Co430   1.981       .  S
O416        C419   1.267       .  A
O416       Co433   1.980   1_545  S
O417        C418   1.250       .  A
O417       Co432   1.966       .  S
C418        C453   1.488       .  S
C419        C470   1.483       .  S
C420        C533   1.475       .  S
C421        C443   1.473       .  S
O422        C435   1.301       .  A
O422       Co430   2.088       .  S
O423        C436   1.271       .  A
O423       Co431   2.036       .  S
O424        C437   1.273       .  A
O424       Co432   1.909       .  S
O425        C438   1.265       .  A
O425       Co433   1.994   1_545  S
O426        C438   1.258       .  A
O426       Co431   1.967   1_455  S
O427        C437   1.291       .  A
O427       Co430   2.040   1_655  S
O428        C435   1.270       .  A
O428       Co433   1.882       .  S
O429        C436   1.264       .  A
O429       Co432   1.994   1_545  S
Co430       O434   2.262   1_565  S
Co431       O434   2.082   1_655  S
Co432       O434   1.943   1_665  S
Co433       O434   1.905   1_565  S
C435        C550   1.489       .  S
C436        C460   1.503       .  S
C437        C663   1.470       .  S
C438        C620   1.477       .  S
C439        C440   1.402       .  A
C439        C444   1.386       .  A
C439        H446   1.083       .  S
C440        C441   1.411       .  A
C441        C442   1.405       .  A
C441       Br448   1.918       .  S
C442        C443   1.406       .  A
C442        H447   1.082       .  S
C443        C444   1.409       .  A
C444       Br445   1.919       .  S
C449        C450   1.400       .  A
C449        C454   1.404       .  A
C449        H456   1.083       .  S
C450        C451   1.409       .  A
C451        C452   1.395       .  A
C451       Br458   1.922       .  S
C452        C453   1.406       .  A
C452        H457   1.083       .  S
C453        C454   1.419       .  A
C454       Br455   1.921       .  S
C459        C460   1.407       .  A
C459        C464   1.402       .  A
C459        H466   1.083       .  S
C460        C461   1.421       .  A
C461        C462   1.412       .  A
C461       Br468   1.921       .  S
C462        C463   1.405       .  A
C462        H467   1.083       .  S
C463        C464   1.410       .  A
C464       Br465   1.920       .  S
C469        C470   1.405       .  A
C469        C474   1.387       .  A
C469        H476   1.083       .  S
C470        C471   1.411       .  A
C471        C472   1.410       .  A
C471       Br478   1.917       .  S
C472        C473   1.409       .  A
C472        H477   1.082       .  S
C473        C474   1.407       .  A
C474       Br475   1.926       .  S
C479        C480   1.402       .  A
C479        C484   1.396       .  A
C479        H486   1.088       .  S
C480        C481   1.420       .  A
C481        C482   1.402       .  A
C481       Br488   1.920       .  S
C482        C483   1.399       .  A
C482        H487   1.088       .  S
C483        C484   1.408       .  A
C484       Br485   1.920       .  S
C489        C490   1.398       .  A
C489        C494   1.400       .  A
C489        H496   1.075       .  S
C490        C491   1.411       .  A
C491        C492   1.387       .  A
C491       Br498   1.921       .  S
C492        C493   1.394       .  A
C492        H497   1.082       .  S
C493        C494   1.410       .  A
C494       Br495   1.915       .  S
C499        C500   1.398       .  A
C499        C504   1.401       .  A
C499        H506   1.087       .  S
C500        C501   1.413       .  A
C501        C502   1.393       .  A
C501       Br508   1.922       .  S
C502        C503   1.397       .  A
C502        H507   1.087       .  S
C503        C504   1.413       .  A
C504       Br505   1.918       .  S
C509        C510   1.406       .  A
C509        C514   1.398       .  A
C509        H516   1.080       .  S
C510        C511   1.409       .  A
C511        C512   1.408       .  A
C511       Br518   1.918   1_554  S
C512        C513   1.409       .  A
C512        H517   1.082       .  S
C513        C514   1.408       .  A
C514       Br515   1.921       .  S
C519        C520   1.410       .  A
C519        C524   1.408       .  A
C519        H526   1.084       .  S
C520        C521   1.407       .  A
C521        C522   1.403       .  A
C521       Br528   1.920       .  S
C522        C523   1.411       .  A
C522        H527   1.085       .  S
C523        C524   1.409       .  A
C524       Br525   1.917   1_554  S
C529        C530   1.404       .  A
C529        C534   1.397       .  A
C529        H536   1.083       .  S
C530        C531   1.405       .  A
C531        C532   1.392       .  A
C531       Br538   1.920       .  S
C532        C533   1.408       .  A
C532        H537   1.083       .  S
C533        C534   1.410       .  A
C534       Br535   1.920       .  S
C539        C540   1.410       .  A
C539        C544   1.401       .  A
C539        H546   1.084       .  S
C540        C541   1.406       .  A
C541        C542   1.401       .  A
C541       Br548   1.919       .  S
C542        C543   1.413       .  A
C542        H547   1.083       .  S
C543        C544   1.413       .  A
C544       Br545   1.923       .  S
C549        C550   1.401       .  A
C549        C554   1.389       .  A
C549        H556   1.084       .  S
C550        C551   1.414       .  A
C551        C552   1.415       .  A
C551       Br558   1.915       .  S
C552        C553   1.410       .  A
C552        H557   1.083       .  S
C553        C554   1.414       .  A
C554       Br555   1.928       .  S
C559        C560   1.409       .  A
C559        C564   1.404       .  A
C559        H566   1.084       .  S
C560        C561   1.407       .  A
C561        C562   1.404       .  A
C561       Br568   1.918       .  S
C562        C563   1.409       .  A
C562        H567   1.084       .  S
C563        C564   1.407       .  A
C564       Br565   1.919       .  S
C569        C570   1.414       .  A
C569        C574   1.407       .  A
C569        H576   1.084       .  S
C570        C571   1.417       .  A
C571        C572   1.406       .  A
C571       Br578   1.917       .  S
C572        C573   1.402       .  A
C572        H577   1.083       .  S
C573        C574   1.410       .  A
C574       Br575   1.921       .  S
C579        C580   1.406       .  A
C579        C584   1.407       .  A
C579        H586   1.085       .  S
C580        C581   1.408       .  A
C581        C582   1.396       .  A
C581       Br588   1.920   1_545  S
C582        C583   1.405       .  A
C582        H587   1.086       .  S
C583        C584   1.411       .  A
C584       Br585   1.917       .  S
C589        C590   1.406       .  A
C589        C594   1.400       .  A
C589        H596   1.086       .  S
C590        C591   1.412       .  A
C591        C592   1.398       .  A
C591       Br598   1.919       .  S
C592        C593   1.404       .  A
C592        H597   1.086       .  S
C593        C594   1.411       .  A
C594       Br595   1.915   1_565  S
C599        C600   1.405       .  A
C599        C604   1.407       .  A
C599        H606   1.084       .  S
C600        C601   1.417       .  A
C601        C602   1.397       .  A
C601       Br608   1.923       .  S
C602        C603   1.399       .  A
C602        H607   1.084       .  S
C603        C604   1.410       .  A
C604       Br605   1.915       .  S
C609        C610   1.407       .  A
C609        C614   1.407       .  A
C609        H616   1.078       .  S
C610        C611   1.425       .  A
C611        C612   1.406       .  A
C611       Br618   1.924       .  S
C612        C613   1.400       .  A
C612        H617   1.082       .  S
C613        C614   1.415       .  A
C614       Br615   1.919       .  S
C619        C620   1.408       .  A
C619        C624   1.407       .  A
C619        H626   1.083       .  S
C620        C621   1.420       .  A
C621        C622   1.379       .  A
C621       Br628   1.932       .  S
C622        C623   1.397       .  A
C622        H627   1.084       .  S
C623        C624   1.411       .  A
C624       Br625   1.916       .  S
C629        C630   1.399       .  A
C629        C634   1.398       .  A
C629        H636   1.083       .  S
C630        C631   1.414       .  A
C631        C632   1.399       .  A
C631       Br638   1.918       .  S
C632        C633   1.400       .  A
C632        H637   1.083       .  S
C633        C634   1.416       .  A
C634       Br635   1.923       .  S
C639        C640   1.399       .  A
C639        C644   1.398       .  A
C639        H646   1.083       .  S
C640        C641   1.410       .  A
C641        C642   1.402       .  A
C641       Br648   1.918       .  S
C642        C643   1.403       .  A
C642        H647   1.083       .  S
C643        C644   1.413       .  A
C644       Br645   1.921       .  S
C649        C650   1.404       .  A
C649        C654   1.405       .  A
C649        H656   1.087       .  S
C650        C651   1.422       .  A
C651        C652   1.397       .  A
C651       Br658   1.927       .  S
C652        C653   1.399       .  A
C652        H657   1.090       .  S
C653        C654   1.421       .  A
C654       Br655   1.920       .  S
C659        C660   1.403       .  A
C659        C664   1.399       .  A
C659        H666   1.084       .  S
C660        C661   1.405       .  A
C661        C662   1.393       .  A
C661       Br668   1.920       .  S
C662        C663   1.405       .  A
C662        H667   1.084       .  S
C663        C664   1.409       .  A
C664       Br665   1.919       .  S
C669        C670   1.407       .  A
C669        C674   1.399       .  A
C669        H676   1.083       .  S
C670        C671   1.409       .  A
C671        C672   1.403       .  A
C671       Br678   1.917       .  S
C672        C673   1.404       .  A
C672        H677   1.083       .  S
C673        C674   1.407       .  A
C674       Br675   1.921   1_565  S
C679        C680   1.404       .  A
C679        C684   1.397       .  A
C679        H686   1.083       .  S
C680        C681   1.413       .  A
C681        C682   1.395       .  A
C681       Br688   1.916       .  S
C682        C683   1.397       .  A
C682        H687   1.084       .  S
C683        C684   1.404       .  A
C684       Br685   1.919       .  S
C689        C690   1.400       .  A
C689        C694   1.401       .  A
C689        H696   1.084       .  S
C690        C691   1.403       .  A
C691        C692   1.398       .  A
C691       Br698   1.918       .  S
C692        C693   1.411       .  A
C692        H697   1.083       .  S
C693        C694   1.421       .  A
C694       Br695   1.923       .  S
C699        C700   1.402       .  A
C699        C704   1.403       .  A
C699        H706   1.083       .  S
C700        C701   1.413       .  A
C701        C702   1.406       .  A
C701       Br708   1.919       .  S
C702        C703   1.403       .  A
C702        H707   1.083       .  S
C703        C704   1.412       .  A
C704       Br705   1.915       .  S
C709        C710   1.403       .  A
C709        C714   1.397       .  A
C709        H716   1.084       .  S
C710        C711   1.410       .  A
C711        C712   1.401       .  A
C711       Br718   1.919       .  S
C712        C713   1.402       .  A
C712        H717   1.084       .  S
C713        C714   1.407       .  A
C714       Br715   1.918       .  S
C719        C720   1.408       .  A
C719        C724   1.401       .  A
C719        H726   1.083       .  S
C720        C721   1.423       .  A
C721        C722   1.404       .  A
C721       Br728   1.923       .  S
C722        C723   1.401       .  A
C722        H727   1.083       .  S
C723        C724   1.412       .  A
C724       Br725   1.921       .  S
C729        C730   1.398       .  A
C729        C734   1.397       .  A
C729        H736   1.081       .  S
C730        C731   1.406       .  A
C731        C732   1.396       .  A
C731       Br738   1.919       .  S
C732        C733   1.404       .  A
C732        H737   1.077       .  S
C733        C734   1.419       .  A
C734       Br735   1.924       .  S
C739        C740   1.403       .  A
C739        C744   1.405       .  A
C739        H746   1.084       .  S
C740        C741   1.414       .  A
C741        C742   1.407       .  A
C741       Br748   1.919       .  S
C742        C743   1.403       .  A
C742        H747   1.084       .  S
C743        C744   1.415       .  A
C744       Br745   1.920       .  S
C749        C750   1.405       .  A
C749        C754   1.402       .  A
C749        H756   1.083       .  S
C750        C751   1.408       .  A
C751        C752   1.401       .  A
C751       Br758   1.919       .  S
C752        C753   1.406       .  A
C752        H757   1.083       .  S
C753        C754   1.409       .  A
C754       Br755   1.920       .  S
C759        C760   1.405       .  A
C759        C764   1.415       .  A
C759        H766   1.084       .  S
C760        C761   1.419       .  A
C761        C762   1.401       .  A
C761       Br768   1.921       .  S
C762        C763   1.398       .  A
C762        H767   1.084       .  S
C763        C764   1.418       .  A
C764       Br765   1.917       .  S
C769        C770   1.396       .  A
C769        C774   1.395       .  A
C769        H776   1.081       .  S
C770        C771   1.412       .  A
C771        C772   1.412       .  A
C771       Br778   1.917       .  S
C772        C773   1.410       .  A
C772        H777   1.082       .  S
C773        C774   1.422       .  A
C774       Br775   1.921       .  S
C779        C780   1.409       .  A
C779        C784   1.401       .  A
C779        H786   1.085       .  S
C780        C781   1.405       .  A
C781        C782   1.410       .  A
C781       Br788   1.916       .  S
C782        C783   1.414       .  A
C782        H787   1.084       .  S
C783        C784   1.408       .  A
C784       Br785   1.919       .  S
C789        C790   1.413       .  A
C789        C794   1.400       .  A
C789        H796   1.083       .  S
C790        C791   1.411       .  A
C791        C792   1.412       .  A
C791       Br798   1.916       .  S
C792        C793   1.413       .  A
C792        H797   1.083       .  S
C793        C794   1.407       .  A
C794       Br795   1.917       .  S
C799        C800   1.395       .  A
C799        C804   1.397       .  A
C799        H806   1.083       .  S
C800        C801   1.416       .  A
C801        C802   1.408       .  A
C801       Br808   1.918       .  S
C802        C803   1.401       .  A
C802        H807   1.083       .  S
C803        C804   1.419       .  A
C804       Br805   1.919       .  S
C809        C810   1.403       .  A
C809        C814   1.406       .  A
C809        H816   1.084       .  S
C810        C811   1.413       .  A
C811        C812   1.410       .  A
C811       Br818   1.917       .  S
C812        C813   1.405       .  A
C812        H817   1.083       .  S
C813        C814   1.420       .  A
C814       Br815   1.923       .  S
C819        C820   1.404       .  A
C819        C824   1.405       .  A
C819        H826   1.083       .  S
C820        C821   1.414       .  A
C821        C822   1.413       .  A
C821       Br828   1.916       .  S
C822        C823   1.407       .  A
C822        H827   1.083       .  S
C823        C824   1.419       .  A
C824       Br825   1.923       .  S
C829        C830   1.412       .  A
C829        C834   1.400       .  A
C829        H836   1.084       .  S
C830        C831   1.403       .  A
C831        C832   1.407       .  A
C831       Br838   1.917       .  S
C832        C833   1.417       .  A
C832        H837   1.083       .  S
C833        C834   1.404       .  A
C834       Br835   1.919       .  S
C839        C840   1.404       .  A
C839        C844   1.400       .  A
C839        H846   1.084       .  S
C840        C841   1.419       .  A
C841        C842   1.393       .  A
C841       Br848   1.926       .  S
C842        C843   1.396       .  A
C842        H847   1.084       .  S
C843        C844   1.408       .  A
C844       Br845   1.917       .  S
C849        C850   1.396       .  A
C849        C854   1.393       .  A
C849        H856   1.084       .  S
C850        C851   1.409       .  A
C851        C852   1.404       .  A
C851       Br858   1.916       .  S
C852        C853   1.404       .  A
C852        H857   1.084       .  S
C853        C854   1.414       .  A
C854       Br855   1.922       .  S
C859        C860   1.405       .  A
C859        C864   1.394       .  A
C859        H866   1.085       .  S
C860        C861   1.408       .  A
C861        C862   1.399       .  A
C861       Br868   1.921       .  S
C862        C863   1.405       .  A
C862        H867   1.084       .  S
C863        C864   1.404       .  A
C864       Br865   1.918       .  S
C869        C870   1.399       .  A
C869        C874   1.398       .  A
C869        H876   1.084       .  S
C870        C871   1.410       .  A
C871        C872   1.403       .  A
C871       Br878   1.919       .  S
C872        C873   1.404       .  A
C872        H877   1.083       .  S
C873        C874   1.416       .  A
C874       Br875   1.921       .  S
C879        C880   1.409       .  A
C879        C884   1.396       .  A
C879        H886   1.085       .  S
C880        C881   1.406       .  A
C881        C882   1.405       .  A
C881       Br888   1.912   1_545  S
C882        C883   1.410       .  A
C882        H887   1.084       .  S
C883        C884   1.406       .  A
C884       Br885   1.921       .  S
C889        C890   1.409       .  A
C889        C894   1.404       .  A
C889        H896   1.082       .  S
C890        C891   1.421       .  A
C891        C892   1.403       .  A
C891       Br898   1.924       .  S
C892        C893   1.403       .  A
C892        H897   1.083       .  S
C893        C894   1.411       .  A
C894       Br895   1.921       .  S
C899        C900   1.406       .  A
C899        C904   1.410       .  A
C899        H906   1.084       .  S
C900        C901   1.417       .  A
C901        C902   1.405       .  A
C901       Br908   1.919       .  S
C902        C903   1.401       .  A
C902        H907   1.084       .  S
C903        C904   1.412       .  A
C904       Br905   1.916       .  S
C909        C910   1.403       .  A
C909        C914   1.398       .  A
C909        H916   1.084       .  S
C910        C911   1.402       .  A
C911        C912   1.389       .  A
C911       Br918   1.924       .  S
C912        C913   1.412       .  A
C912        H917   1.083       .  S
C913        C914   1.411       .  A
C914       Br915   1.919       .  S
