geometry optimzed in LAMMPS
_audit_creation_date              2020-11-30 
_audit_creation_method            'lammps2cif' 
_symmetry_space_group_name_H-M    'P1' 
_symmetry_Int_Tables_number       1 
_symmetry_cell_setting            triclinic 
loop_ 
_symmetry_equiv_pos_as_xyz 
  x,y,z 
_cell_length_a                    41.81441008529026 
_cell_length_b                    42.20933397877415 
_cell_length_c                    42.676071691398825 
_cell_angle_alpha                 90.07796327713487 
_cell_angle_beta                  89.91704798689813 
_cell_angle_gamma                 89.6547835922181 
loop_ 
_atom_site_label 
_atom_site_type_symbol 
_atom_site_fract_x 
_atom_site_fract_y 
_atom_site_fract_z 
_atom_site_charge 
O1          O  0.47806757  0.54054191  0.56578491    -0.78470
O2          O  0.51990102  0.43591915  0.47109442    -0.63160
O3          O  0.51437584  0.51228701  0.51780245    -1.09760
C4          C  0.43417471  0.53813477  0.44399972     1.08420
O5          O  0.51968307  0.46177783  0.42629723    -0.76360
O6          O  0.51443384  0.52339349  0.42556680    -0.63950
Ni7        Ni  0.51341390  0.51152246  0.56245726     1.34870
C8          C  0.52105373  0.54684645  0.44289637     0.87160
O9          O  0.55386878  0.45884923  0.51694494    -0.76900
O10         O  0.54850304  0.48197451  0.56405927    -0.87180
C11         C  0.52985115  0.43945292  0.44349611     0.86730
O12         O  0.48357721  0.47812607  0.56694605    -0.65380
O13         O  0.44853801  0.51872668  0.42594924    -0.84670
C14         C  0.47751743  0.45385364  0.55053887     0.87560
C15         C  0.56198148  0.46256852  0.54520009     1.09130
H16         H  0.46242720  0.47674584  0.47858987     0.40930
O17         O  0.48101468  0.48915063  0.47329133    -1.07330
O18         O  0.50718727  0.55218078  0.46896686    -0.63980
Ni19       Ni  0.47821759  0.52837463  0.49546706     1.26350
O20         O  0.48954028  0.44911200  0.52342300    -0.64210
O21         O  0.44216110  0.54331556  0.47229342    -0.76500
C22         C  0.46727243  0.56292082  0.54886591     0.86940
O23         O  0.47482331  0.56559683  0.52031802    -0.63680
Ni24       Ni  0.48398448  0.49010076  0.42857598     1.27450
Ni25       Ni  0.51707849  0.47326068  0.49548783     1.26060
H26         H  0.53301708  0.52446630  0.51222356     0.41490
O27         O  0.47871101  0.20484668  0.17755744    -0.78470
O28         O  0.52766576  0.31787053  0.26337531    -0.63160
O29         O  0.51407683  0.23935819  0.22119167    -1.09760
C30         C  0.44890686  0.21162559  0.30511225     1.08420
O31         O  0.52399048  0.29948926  0.31193908    -0.76360
O32         O  0.53213721  0.23784353  0.30699416    -0.63950
Ni33       Ni  0.50483356  0.24173828  0.17720885     1.34870
C34         C  0.53335790  0.21115797  0.29359115     0.87160
O35         O  0.55426056  0.29064900  0.21481785    -0.76900
O36         O  0.53063258  0.27868553  0.16981114    -0.87180
C37         C  0.53470832  0.31921506  0.29213328     0.86730
O38         O  0.46782387  0.26716799  0.18386859    -0.65380
O39         O  0.46889478  0.22757788  0.32100611    -0.84670
C40         C  0.46778512  0.29442242  0.19641943     0.87560
C41         C  0.55157498  0.29347085  0.18552049     1.09130
H42         H  0.46780008  0.27848901  0.26602523     0.40930
O43         O  0.48661561  0.26553519  0.26899758    -1.07330
O44         O  0.51240886  0.20208897  0.27359549    -0.63980
Ni45       Ni  0.48053684  0.22564642  0.24853930     1.26350
O46         O  0.48895235  0.30273213  0.21644409    -0.64210
O47         O  0.44686918  0.21360994  0.27566901    -0.76500
C48         C  0.46853271  0.18467154  0.19704186     0.86940
O49         O  0.47284256  0.18705026  0.22638035    -0.63680
Ni50       Ni  0.49578400  0.26389525  0.31304868     1.27450
Ni51       Ni  0.52026037  0.27906244  0.24171758     1.26060
H52         H  0.53299110  0.22632959  0.22395973     0.41490
C53         C  0.80418895  0.77610786  0.81456328     0.05550
C54         C  0.81952140  0.78637887  0.78691222    -0.10600
C55         C  0.80858756  0.81347570  0.77077258     0.03050
C56         C  0.78209272  0.83042013  0.78251800    -0.09120
C57         C  0.76642386  0.82070986  0.81003039     0.05550
C58         C  0.77760785  0.79349263  0.82599821    -0.08540
H59         H  0.84004825  0.77336072  0.77803035     0.11140
H60         H  0.77371468  0.85136560  0.77025744     0.08670
H61         H  0.76573633  0.78593327  0.84728055     0.08520
C62         C  0.76291508  0.97198301  0.95128108     0.05550
C63         C  0.77539200  0.95698940  0.97798208    -0.10600
C64         C  0.80315635  0.96858397  0.99233820     0.03050
C65         C  0.81842012  0.99526427  0.98000613    -0.09120
C66         C  0.80617173  0.01039369  0.95334480     0.05550
C67         C  0.77838194  0.99873829  0.93899490    -0.08540
H68         H  0.76378740  0.93610946  0.98730560     0.11140
H69         H  0.84006407  0.00400394  0.99091422     0.08670
H70         H  0.76907736  0.01017971  0.91815382     0.08520
C71         C  0.94530968  0.81244502  0.99309482     0.05550
C72         C  0.97151465  0.82940557  0.98111069    -0.10600
C73         C  0.98857595  0.81737529  0.95524254     0.03050
C74         C  0.97961525  0.78877321  0.94161606    -0.09120
C75         C  0.95355385  0.77224022  0.95330777     0.05550
C76         C  0.93641786  0.78383273  0.97908940    -0.08540
H77         H  0.97819420  0.85188489  0.99143475     0.11140
H78         H  0.99236405  0.77982719  0.92123086     0.08670
H79         H  0.91578937  0.77103462  0.98772297     0.08520
C80         C  0.94566168  0.96809866  0.76888627     0.05550
C81         C  0.93450571  0.99657009  0.78226202    -0.10600
C82         C  0.95074288  0.01009350  0.80778997     0.03050
C83         C  0.97807599  0.99511699  0.81985241    -0.09120
C84         C  0.98926517  0.96676136  0.80665993     0.05550
C85         C  0.97307306  0.95331848  0.78117170    -0.08540
H86         H  0.91314837  0.00791355  0.77312274     0.11140
H87         H  0.99034952  0.00527467  0.83982635     0.08670
H88         H  0.98157128  0.93118641  0.77115078     0.08520
O89         O  0.07720514  0.87944253  0.91388251    -0.72000
O90         O  0.14181969  0.91230540  0.86049485    -0.72030
O91         O  0.07850049  0.92446719  0.86893208    -0.72090
O92         O  0.14012214  0.86656906  0.90384609    -0.72140
O93         O  0.12682992  0.83006665  0.86835973    -0.72070
O94         O  0.06725222  0.88852099  0.83219349    -0.72050
O95         O  0.13075224  0.87586978  0.82423235    -0.72020
O96         O  0.06405389  0.84380305  0.87744221    -0.72090
Ni97       Ni  0.10981322  0.89697714  0.88807723     1.25410
Ni98       Ni  0.09674199  0.85830599  0.84918729     1.25360
C99         C  0.05993437  0.85653238  0.90447430     0.90180
C100        C  0.14764315  0.89911929  0.83413230     0.90110
C101        C  0.06264362  0.91566127  0.84477397     0.90140
C102        C  0.14375638  0.83893704  0.89160755     0.90310
O103        O  0.86543139  0.84357379  0.07253764    -0.72000
O104        O  0.82239233  0.89098150  0.13808714    -0.72030
O105        O  0.82568900  0.89452882  0.07439235    -0.72090
O106        O  0.86131545  0.83859299  0.13573509    -0.72140
O107        O  0.90271437  0.87120018  0.14154219    -0.72070
O108        O  0.86868477  0.92550763  0.07726377    -0.72050
O109        O  0.86440122  0.92325450  0.14033708    -0.72020
O110        O  0.90808331  0.87460210  0.07833422    -0.72090
Ni111      Ni  0.84213647  0.86575693  0.10513248     1.25410
Ni112      Ni  0.88748481  0.89968726  0.10963337     1.25360
C113        C  0.89391141  0.85169554  0.06477647     0.90180
C114        C  0.83626044  0.91573307  0.14910815     0.90110
C115        C  0.84146389  0.91869389  0.06530967     0.90140
C116        C  0.88782919  0.84566311  0.14871755     0.90310
O117        O  0.87998583  0.84564439  0.68384240    -0.72000
O118        O  0.92208132  0.89833407  0.62233124    -0.72030
O119        O  0.91858670  0.89702162  0.68600851    -0.72090
O120        O  0.88365658  0.84666962  0.61943176    -0.72140
O121        O  0.84090894  0.87838334  0.61727816    -0.72070
O122        O  0.87537161  0.92828400  0.68509856    -0.72050
O123        O  0.87943402  0.93030338  0.62180627    -0.72020
O124        O  0.83688634  0.87692517  0.68163847    -0.72090
Ni125      Ni  0.90250992  0.87068705  0.65288832     1.25410
Ni126      Ni  0.85654864  0.90446877  0.65128329     1.25360
C127        C  0.85189637  0.85329470  0.69355641     0.90180
C128        C  0.90793669  0.92361523  0.61278512     0.90110
C129        C  0.90274328  0.92083046  0.69649714     0.90140
C130        C  0.85690404  0.85446466  0.60693104     0.90310
O131        O  0.92241673  0.68976593  0.87961233    -0.72000
O132        O  0.87420251  0.62279461  0.84164723    -0.72030
O133        O  0.87069627  0.68768717  0.84162873    -0.72090
O134        O  0.92704969  0.62619090  0.87907514    -0.72140
O135        O  0.89530090  0.62279615  0.92095834    -0.72070
O136        O  0.83945597  0.68678404  0.88399016    -0.72050
O137        O  0.84255899  0.62191492  0.88379729    -0.72020
O138        O  0.89115868  0.68669369  0.92201654    -0.72090
Ni139      Ni  0.89957887  0.65653839  0.85887198     1.25410
Ni140      Ni  0.86586128  0.65437395  0.90408474     1.25360
C141        C  0.91460822  0.69875442  0.90726494     0.90180
C142        C  0.85049467  0.61125918  0.85689373     0.90110
C143        C  0.84661781  0.69839505  0.85700006     0.90140
C144        C  0.92129691  0.61531084  0.90649215     0.90310
O145        O  0.68416448  0.90189193  0.83055169    -0.72000
O146        O  0.61777322  0.95459969  0.86763331    -0.72030
O147        O  0.68198022  0.94709060  0.87582698    -0.72090
O148        O  0.61994261  0.90987396  0.82090605    -0.72140
O149        O  0.61026684  0.87280575  0.85677790    -0.72070
O150        O  0.67246698  0.91002822  0.91183622    -0.72050
O151        O  0.60799669  0.91697507  0.90289523    -0.72020
O152        O  0.67442479  0.86488357  0.86648844    -0.72090
Ni153      Ni  0.65119257  0.92969963  0.84743206     1.25410
Ni154      Ni  0.64089525  0.88984911  0.88570726     1.25360
C155        C  0.69054376  0.87485638  0.84297150     0.90180
C156        C  0.60220293  0.94453997  0.89164435     0.90110
C157        C  0.68776511  0.93452045  0.90248736     0.90140
C158        C  0.60483775  0.88519317  0.82979229     0.90310
O159        O  0.84948772  0.10102557  0.89589860    -0.72000
O160        O  0.90504123  0.16538242  0.86331012    -0.72030
O161        O  0.89458070  0.10295593  0.85041324    -0.72090
O162        O  0.85974524  0.16302945  0.90888285    -0.72140
O163        O  0.89690172  0.14960234  0.94393850    -0.72070
O164        O  0.93171990  0.08920704  0.88545735    -0.72050
O165        O  0.94247286  0.15147287  0.89791009    -0.72020
O166        O  0.88670293  0.08757701  0.93097513    -0.72090
Ni167      Ni  0.87595132  0.13368886  0.87838301     1.25410
Ni168      Ni  0.91584384  0.11911236  0.91581164     1.25360
C169        C  0.85910964  0.08365051  0.91862778     0.90180
C170        C  0.93308224  0.16872634  0.87495502     0.90110
C171        C  0.91838966  0.08570648  0.85868256     0.90140
C172        C  0.87199214  0.16562876  0.93628704     0.90310
O173        O  0.22189609  0.43625651  0.29413861    -0.78470
O174        O  0.27013529  0.53192523  0.19173650    -0.63160
O175        O  0.26180653  0.48101617  0.26502191    -1.09760
C176        C  0.19201804  0.56415335  0.29783670     1.08420
O177        O  0.27615928  0.57551977  0.21975390    -0.76360
O178        O  0.26953618  0.57630832  0.28176504    -0.63950
Ni179      Ni  0.25426716  0.43655328  0.26200303     1.34870
C180        C  0.27694270  0.55679544  0.30310562     0.87160
O181        O  0.29817695  0.47920076  0.21006662    -0.76900
O182        O  0.28588291  0.43140694  0.22936035    -0.87180
C183        C  0.28265761  0.55884540  0.19569563     0.86730
O184        O  0.22089043  0.43937347  0.23222046    -0.65380
O185        O  0.20488245  0.58109618  0.27663015    -0.84670
C186        C  0.21634156  0.45748991  0.20906044     0.87560
C187        C  0.30182249  0.44941120  0.21119519     1.09130
H188        H  0.21346593  0.52824140  0.23499583     0.40930
O189        O  0.23328249  0.53118399  0.24621797    -1.07330
O190        O  0.26394774  0.52974750  0.30630935    -0.63980
Ni191      Ni  0.23017144  0.50762613  0.28425637     1.26350
O192        O  0.23282863  0.48234693  0.20381395    -0.64210
O193        O  0.19892227  0.53514373  0.30259378    -0.76500
C194        C  0.21522193  0.45347818  0.31777571     0.86940
O195        O  0.22578632  0.48143592  0.32042942    -0.63680
Ni196      Ni  0.24000497  0.57590514  0.24798420     1.27450
Ni197      Ni  0.26545206  0.50522298  0.22740737     1.26060
H198        H  0.28171272  0.48321067  0.27625803     0.41490
O199        O  0.17458498  0.27819930  0.54685597    -0.78470
O200        O  0.27019202  0.22448651  0.44364625    -0.63160
O201        O  0.22143823  0.24123338  0.51762781    -1.09760
C202        C  0.30432414  0.30965209  0.54685409     1.08420
O203        O  0.31808360  0.22949894  0.46539378    -0.76360
O204        O  0.31054429  0.22636754  0.52616049    -0.63950
Ni205      Ni  0.17671394  0.24973835  0.51236890     1.34870
C206        C  0.29428473  0.22564145  0.55109544     0.87160
O207        O  0.21848518  0.19912927  0.46741661    -0.76900
O208        O  0.17156534  0.22223070  0.47679916    -0.87180
C209        C  0.29963484  0.21762736  0.44501876     0.86730
O210        O  0.18495707  0.28474131  0.48613823    -0.65380
O211        O  0.32196206  0.29002678  0.53210997    -0.84670
C212        C  0.19926889  0.28366354  0.45998249     0.87560
C213        C  0.18865889  0.20161554  0.46291300     1.09130
H214        H  0.26854282  0.28585710  0.48025367     0.40930
O215        O  0.27132040  0.26785759  0.49393586    -1.07330
O216        O  0.27211232  0.24563473  0.55756913    -0.63980
Ni217      Ni  0.24777825  0.27557331  0.53178135     1.26350
O218        O  0.22060037  0.26279383  0.45363909    -0.64210
O219        O  0.27415155  0.30986493  0.54455317    -0.76500
C220        C  0.19267365  0.28982456  0.56762285     0.86940
O221        O  0.22252387  0.28447298  0.56823990    -0.63680
Ni222      Ni  0.31646408  0.26029930  0.49816524     1.27450
Ni223      Ni  0.24505227  0.23339955  0.47995496     1.26060
H224        H  0.22373684  0.22318311  0.53136990     0.41490
O225        O  0.46739896  0.72694609  0.68926760    -0.78470
O226        O  0.53121712  0.82944424  0.77471549    -0.63160
O227        O  0.51457201  0.75325965  0.72804838    -1.09760
C228        C  0.45300964  0.72708228  0.81832261     1.08420
O229        O  0.54333460  0.79814041  0.81440834    -0.76360
O230        O  0.53381890  0.73667409  0.81871430    -0.63950
Ni231      Ni  0.50444382  0.75331221  0.68460090     1.34870
C232        C  0.53495025  0.71323686  0.80018130     0.87160
O233        O  0.55016548  0.80940066  0.71782825    -0.76900
O234        O  0.54002062  0.78006114  0.67495010    -0.87180
C235        C  0.54355327  0.82518158  0.80172123     0.86730
O236        O  0.47716149  0.78924764  0.68507052    -0.65380
O237        O  0.47106783  0.74644498  0.83275139    -0.84670
C238        C  0.47242753  0.81214534  0.70376621     0.87560
C239        C  0.55381932  0.80295033  0.68879051     1.09130
H240        H  0.47388197  0.78757097  0.77954139     0.40930
O241        O  0.49326007  0.77497939  0.77952371    -1.07330
O242        O  0.51717679  0.71073536  0.77623186    -0.63980
Ni243      Ni  0.48414857  0.73680078  0.75769462     1.26350
O244        O  0.48686403  0.81545284  0.72995844    -0.64210
O245        O  0.45434470  0.72198142  0.78879517    -0.76500
C246        C  0.46202472  0.70295132  0.70641461     0.86940
O247        O  0.47423852  0.70025018  0.73336735    -0.63680
Ni248      Ni  0.50663918  0.77267548  0.82188920     1.27450
Ni249      Ni  0.52218383  0.79250305  0.74934953     1.26060
H250        H  0.53406705  0.74099295  0.72976662     0.41490
O251        O  0.22042915  0.82948296  0.96476225    -0.78470
O252        O  0.27007916  0.73380059  0.06823218    -0.63160
O253        O  0.25595951  0.78374395  0.99534651    -1.09760
C254        C  0.19323419  0.69576492  0.96353346     1.08420
O255        O  0.27834879  0.69074573  0.04023019    -0.76360
O256        O  0.27254274  0.69134230  0.97883721    -0.63950
Ni257      Ni  0.24407066  0.82700695  0.00272501     1.34870
C258        C  0.27562873  0.71024573  0.95599637     0.87160
O259        O  0.29463251  0.78657225  0.04752397    -0.76900
O260        O  0.26763129  0.83148211  0.04146882    -0.87180
C261        C  0.28409511  0.70764127  0.06410525     0.86730
O262        O  0.20647325  0.81507861  0.02470974    -0.65380
O263        O  0.20906182  0.67984348  0.98347305    -0.84670
C264        C  0.20701569  0.80010263  0.05046152     0.87560
C265        C  0.28977290  0.81525343  0.05416419     1.09130
H266        H  0.21224603  0.73299080  0.02721084     0.40930
O267        O  0.23163971  0.73171222  0.01493471    -1.07330
O268        O  0.25862801  0.73527498  0.95267834    -0.63980
Ni269      Ni  0.22487559  0.75543897  0.97739594     1.26350
O270        O  0.22941321  0.78052564  0.05725579    -0.64210
O271        O  0.19508320  0.72577256  0.96036548    -0.76500
C272        C  0.21178910  0.81181331  0.94235328     0.86940
O273        O  0.21610381  0.78191498  0.94187451    -0.63680
Ni274      Ni  0.24285089  0.68790133  0.01225189     1.27450
Ni275      Ni  0.26264489  0.75933082  0.03228217     1.26060
H276        H  0.27535104  0.78347367  0.98299009     0.41490
O277        O  0.03530092  0.44105557  0.96180082    -0.78470
O278        O  0.98421452  0.53090952  0.06869135    -0.63160
O279        O  0.99507790  0.48165673  0.99482389    -1.09760
C280        C  0.05485389  0.57236331  0.96261012     1.08420
O281        O  0.97268558  0.57260028  0.03968656    -0.76360
O282        O  0.98222183  0.57984670  0.97841742    -0.63950
Ni283      Ni  0.00770926  0.43840522  0.99742961     1.34870
C284        C  0.97170363  0.55965026  0.95899641     0.87160
O285        O  0.96041279  0.47681777  0.04955647    -0.76900
O286        O  0.98052673  0.43039824  0.03310649    -0.87180
C287        C  0.96787609  0.55572089  0.06383618     0.86730
O288        O  0.04366316  0.44517653  0.02373366    -0.65380
O289        O  0.04573494  0.58588285  0.98776203    -0.84670
C290        C  0.04515824  0.46074318  0.04911056     0.87560
C291        C  0.96165294  0.44692860  0.05008484     1.09130
H292        H  0.04036862  0.53095113  0.02343929     0.40930
O293        O  0.01974646  0.53337737  0.01351561    -1.07330
O294        O  0.98307384  0.53151180  0.95682026    -0.63980
Ni295      Ni  0.02174890  0.51205436  0.97437581     1.26350
O296        O  0.02532187  0.48312994  0.05574481    -0.64210
O297        O  0.04720565  0.54414835  0.95478995    -0.76500
C298        C  0.03809367  0.45906337  0.93817105     0.86940
O299        O  0.02658760  0.48709120  0.93714409    -0.63680
Ni300      Ni  0.00988943  0.57747631  0.01399078     1.27450
Ni301      Ni  0.99066762  0.50491708  0.03271994     1.26060
H302        H  0.97440825  0.48166261  0.98473050     0.41490
O303        O  0.22729205  0.93236800  0.78054944    -0.78470
O304        O  0.28336588  0.03510573  0.69364138    -0.63160
O305        O  0.27197273  0.97857679  0.76193536    -1.09760
C306        C  0.19620995  0.05355609  0.79900228     1.08420
O307        O  0.27954599  0.07868068  0.72291339    -0.76360
O308        O  0.27357979  0.07237697  0.78462553    -0.63950
Ni309      Ni  0.26624438  0.93435916  0.75650965     1.34870
C310        C  0.28079370  0.05207239  0.80529617     0.87160
O311        O  0.31199093  0.98034845  0.70945653    -0.76900
O312        O  0.30436417  0.93248737  0.73187390    -0.87180
C313        C  0.28997080  0.06389142  0.69898292     0.86730
O314        O  0.24072710  0.93597404  0.71980304    -0.65380
O315        O  0.20920592  0.07356286  0.78069060    -0.84670
C316        C  0.23566454  0.95650002  0.69869944     0.87560
C317        C  0.31918292  0.95106778  0.71342381     1.09130
H318        H  0.22326314  0.02498222  0.73236668     0.40930
O319        O  0.24201391  0.02842714  0.74509548    -1.07330
O320        O  0.26894339  0.02424866  0.80651862    -0.63980
Ni321      Ni  0.23801829  0.00154814  0.78085763     1.26350
O322        O  0.24805082  0.98393361  0.69884571    -0.64210
O323        O  0.20353925  0.02443171  0.79952755    -0.76500
C324        C  0.22035144  0.94598885  0.80623391     0.86940
O325        O  0.23348731  0.97179003  0.81386866    -0.63680
Ni326      Ni  0.24410550  0.07326913  0.75117145     1.27450
Ni327      Ni  0.27734120  0.00541047  0.72665115     1.26060
H328        H  0.29086414  0.98081355  0.77474134     0.41490
O329        O  0.67750485  0.79052912  0.53703348    -0.78470
O330        O  0.77246054  0.72895779  0.44034715    -0.63160
O331        O  0.72001285  0.74501803  0.51201672    -1.09760
C332        C  0.80264723  0.81543009  0.54471949     1.08420
O333        O  0.81851440  0.73227243  0.46636250    -0.76360
O334        O  0.81652926  0.73767790  0.52795926    -0.63950
Ni335      Ni  0.67574095  0.75555281  0.50828251     1.34870
C336        C  0.79751423  0.73163494  0.55027535     0.87160
O337        O  0.71586581  0.70529175  0.45895958    -0.76900
O338        O  0.66881425  0.72207908  0.47879277    -0.87180
C339        C  0.80157156  0.72108626  0.44428823     0.86730
O340        O  0.68023811  0.78525502  0.47533882    -0.65380
O341        O  0.82105547  0.80165385  0.52504926    -0.84670
C342        C  0.69860809  0.78630233  0.45178718     0.87560
C343        C  0.68525070  0.70408366  0.46096595     1.09130
H344        H  0.76739361  0.79021775  0.47966211     0.40930
O345        O  0.77098130  0.77136513  0.49200314    -1.07330
O346        O  0.77023215  0.74494989  0.55359224    -0.63980
Ni347      Ni  0.74692639  0.77676986  0.52975644     1.26350
O348        O  0.72309183  0.76850774  0.44831657    -0.64210
O349        O  0.77310699  0.80936287  0.54696483    -0.76500
C350        C  0.69441344  0.79638112  0.56103143     0.86940
O351        O  0.72064628  0.78229388  0.56554275    -0.63680
Ni352      Ni  0.81659086  0.76734193  0.49504689     1.27450
Ni353      Ni  0.74454932  0.73772229  0.47493842     1.26060
H354        H  0.72133597  0.72612146  0.52471145     0.41490
O355        O  0.02877788  0.81972112  0.28816073    -0.78470
O356        O  0.96653619  0.73084689  0.19061586    -0.63160
O357        O  0.98152205  0.77923275  0.26440744    -1.09760
C358        C  0.04515301  0.69543501  0.30016539     1.08420
O359        O  0.96969137  0.68329401  0.21317171    -0.76360
O360        O  0.96236242  0.69154995  0.27385207    -0.63950
Ni361      Ni  0.99141513  0.82317172  0.26240018     1.34870
C362        C  0.96112783  0.70739699  0.29892448     0.87160
O363        O  0.94328339  0.78595198  0.21082476    -0.76900
O364        O  0.95519197  0.83111948  0.23636717    -0.87180
C365        C  0.95937415  0.70173777  0.19185362     0.86730
O366        O  0.01868184  0.82225863  0.22659446    -0.65380
O367        O  0.02588146  0.67811350  0.28469713    -0.84670
C368        C  0.02197107  0.80346345  0.20356585     0.87560
C369        C  0.93946837  0.81561283  0.21605154     1.09130
H370        H  0.02659024  0.72995416  0.23101521     0.40930
O371        O  0.00734459  0.72830953  0.24345480    -1.07330
O372        O  0.98110349  0.72921058  0.30577102    -0.63980
Ni373      Ni  0.01343704  0.75193360  0.28127932     1.26350
O374        O  0.00691811  0.77741281  0.20131133    -0.64210
O375        O  0.04639753  0.72510831  0.29667492    -0.76500
C376        C  0.03287124  0.80444547  0.31344335     0.86940
O377        O  0.01996793  0.77774569  0.31742629    -0.63680
Ni378      Ni  0.99835615  0.68404914  0.24825246     1.27450
Ni379      Ni  0.97478624  0.75634959  0.22655914     1.26060
H380        H  0.96231913  0.77744418  0.27688302     0.41490
O381        O  0.56432631  0.97351485  0.03735186    -0.78470
O382        O  0.46494560  0.02775014  0.94354666    -0.63160
O383        O  0.51948619  0.01764345  0.01414419    -1.09760
C384        C  0.43704175  0.95085976  0.05038445     1.08420
O385        O  0.42325301  0.03499689  0.97485277    -0.76360
O386        O  0.42466435  0.02736292  0.03676226    -0.63950
Ni387      Ni  0.56431718  0.01051004  0.01043683     1.34870
C388        C  0.44506560  0.03271220  0.05796702     0.87160
O389        O  0.52023435  0.05350805  0.95962625    -0.76900
O390        O  0.56822713  0.04635883  0.98283574    -0.87180
C391        C  0.43795938  0.04035768  0.94937673     0.86730
O392        O  0.56437236  0.98349666  0.97480690    -0.65380
O393        O  0.41877183  0.96443230  0.03060003    -0.84670
C394        C  0.54444879  0.97772547  0.95323945     0.87560
C395        C  0.54966305  0.05991324  0.96311226     1.09130
H396        H  0.46977880  0.97122630  0.98578606     0.40930
O397        O  0.46789539  0.99076734  0.99747617    -1.07330
O398        O  0.47254739  0.01939765  0.05888025    -0.63980
Ni399      Ni  0.49362800  0.98654352  0.03395810     1.26350
O400        O  0.51608014  0.98945919  0.95264444    -0.64210
O401        O  0.46691545  0.95557632  0.05271250    -0.76500
C402        C  0.54866904  0.96752215  0.06232073     0.86940
O403        O  0.52224288  0.98107524  0.06803456    -0.63680
Ni404      Ni  0.42322456  0.99901803  0.00218421     1.27450
Ni405      Ni  0.49383956  0.02193635  0.97769237     1.26060
H406        H  0.51728402  0.03722260  0.02571990     0.41490
C407        C  0.29256204  0.76120472  0.30423963     0.05550
C408        C  0.30637330  0.77835546  0.27969152    -0.10600
C409        C  0.29137065  0.80609595  0.26911188     0.03050
C410        C  0.26291910  0.81648782  0.28286362    -0.09120
C411        C  0.24951367  0.79929097  0.30738821     0.05550
C412        C  0.26410378  0.77161316  0.31801978    -0.08540
H413        H  0.32890109  0.77067389  0.26951247     0.11140
H414        H  0.25181742  0.83845770  0.27521626     0.08670
H415        H  0.25400054  0.75887740  0.33773033     0.08520
O416        O  0.40197595  0.67298551  0.38846399    -0.72000
O417        O  0.34567702  0.61110542  0.35232250    -0.72030
O418        O  0.35678553  0.67342176  0.34328521    -0.72090
O419        O  0.39111919  0.61041076  0.39697704    -0.72140
O420        O  0.35509981  0.62180539  0.43404118    -0.72070
O421        O  0.31972454  0.68490249  0.37941915    -0.72050
O422        O  0.30911717  0.62254373  0.38881984    -0.72020
O423        O  0.36498080  0.68444148  0.42459124    -0.72090
Ni424      Ni  0.37524153  0.64152344  0.36903678     1.25410
Ni425      Ni  0.33588823  0.65379176  0.40804979     1.25360
C426        C  0.39245834  0.68904880  0.41227462     0.90180
C427        C  0.31788541  0.60705504  0.36442187     0.90110
C428        C  0.33262122  0.68943396  0.35257541     0.90140
C429        C  0.37899941  0.60558693  0.42407881     0.90310
C430        C  0.49450616  0.94868744  0.30316178     0.05550
C431        C  0.48437062  0.97571174  0.31971522    -0.10600
C432        C  0.45718796  0.99251662  0.30974043     0.03050
C433        C  0.44033424  0.98238583  0.28332809    -0.09120
C434        C  0.45042101  0.95542978  0.26697283     0.05550
C435        C  0.47752843  0.93863882  0.27676887    -0.08540
H436        H  0.49708930  0.98317479  0.34055528     0.11140
H437        H  0.41891493  0.99496838  0.27600572     0.08670
H438        H  0.48491293  0.91736539  0.26436217     0.08520
O439        O  0.57264211  0.86607807  0.32384805    -0.72000
O440        O  0.63652382  0.81197658  0.36101201    -0.72030
O441        O  0.57224122  0.82005258  0.36806902    -0.72090
O442        O  0.63655024  0.85799202  0.31603104    -0.72140
O443        O  0.64487446  0.89388125  0.35347014    -0.72070
O444        O  0.58080851  0.85638272  0.40515192    -0.72050
O445        O  0.64481293  0.84855744  0.39781556    -0.72020
O446        O  0.58136103  0.90219577  0.36111388    -0.72090
Ni447      Ni  0.60423768  0.83764736  0.34090019     1.25410
Ni448      Ni  0.61333730  0.87649511  0.38067084     1.25360
C449        C  0.56656248  0.89294535  0.33662236     0.90180
C450        C  0.65101573  0.82140711  0.38577619     0.90110
C451        C  0.56569626  0.83227049  0.39482330     0.90140
C452        C  0.65106929  0.88252854  0.32621398     0.90310
O453        O  0.36724616  0.93183350  0.19288122    -0.72000
O454        O  0.31148895  0.89358993  0.13320482    -0.72030
O455        O  0.32003616  0.88825990  0.19585383    -0.72090
O456        O  0.35860929  0.93621707  0.13003895    -0.72140
O457        O  0.39439820  0.89734858  0.12301894    -0.72070
O458        O  0.35600831  0.84965007  0.18801531    -0.72050
O459        O  0.34743967  0.85497710  0.12572325    -0.72020
O460        O  0.40301745  0.89297845  0.18545332    -0.72090
Ni461      Ni  0.33804675  0.91393334  0.16338944     1.25410
Ni462      Ni  0.37648763  0.87237358  0.15536862     1.25360
C463        C  0.39418253  0.91868773  0.19885169     0.90180
C464        C  0.32073152  0.86840480  0.11912851     0.90110
C465        C  0.33169933  0.86093586  0.20234205     0.90140
C466        C  0.38240830  0.92411138  0.11527659     0.90310
C467        C  0.26248228  0.94923050  0.45543454     0.05550
C468        C  0.27517604  0.97647743  0.44135860    -0.10600
C469        C  0.30279398  0.99047818  0.45368139     0.03050
C470        C  0.31757706  0.97726643  0.48003900    -0.09120
C471        C  0.30501090  0.95008141  0.49404680     0.05550
C472        C  0.27742362  0.93609217  0.48180917    -0.08540
H473        H  0.26393629  0.98641059  0.42067168     0.11140
H474        H  0.33920768  0.98779296  0.48930015     0.08670
H475        H  0.26795344  0.91477808  0.49242146     0.08520
C476        C  0.49044613  0.79748810  0.44499831     0.05550
C477        C  0.47341080  0.77151024  0.43338328    -0.10600
C478        C  0.44610186  0.76074447  0.44909240     0.03050
C479        C  0.43582514  0.77608601  0.47659027    -0.09120
C480        C  0.45283481  0.80211991  0.48833228     0.05550
C481        C  0.48013126  0.81275877  0.47245099    -0.08540
H482        H  0.48121027  0.75989185  0.41198968     0.11140
H483        H  0.41452388  0.76800362  0.48861210     0.08670
H484        H  0.49312341  0.83306500  0.48125476     0.08520
O485        O  0.38603626  0.92552036  0.56793345    -0.72000
O486        O  0.44366727  0.89224568  0.62960819    -0.72030
O487        O  0.43281906  0.88104212  0.56764382    -0.72090
O488        O  0.39656101  0.93717664  0.62935983    -0.72140
O489        O  0.36144538  0.89966525  0.64197625    -0.72070
O490        O  0.39720364  0.84395709  0.58021609    -0.72050
O491        O  0.40792069  0.85539559  0.64238775    -0.72020
O492        O  0.35035457  0.88845247  0.58047814    -0.72090
Ni493      Ni  0.41611573  0.91028786  0.59824390     1.25410
Ni494      Ni  0.37799633  0.87052705  0.61173128     1.25360
C495        C  0.35882610  0.91237855  0.56413440     0.90180
C496        C  0.43519044  0.86850517  0.64629631     0.90110
C497        C  0.42051929  0.85365795  0.56335764     0.90140
C498        C  0.37293135  0.92749517  0.64578353     0.90310
O499        O  0.42484556  0.07323521  0.38493867    -0.72000
O500        O  0.37824860  0.13693673  0.42941850    -0.72030
O501        O  0.37578914  0.07280071  0.42635972    -0.72090
O502        O  0.42679185  0.13734183  0.38817356    -0.72140
O503        O  0.39167973  0.14060509  0.34896099    -0.72070
O504        O  0.34053806  0.07653080  0.38725344    -0.72050
O505        O  0.34307194  0.14094094  0.39028770    -0.72020
O506        O  0.38964570  0.07649293  0.34573287    -0.72090
Ni507      Ni  0.40263387  0.10490801  0.40865100     1.25410
Ni508      Ni  0.36495659  0.10869457  0.36664374     1.25360
C509        C  0.41485276  0.06445766  0.35803412     0.90180
C510        C  0.35366390  0.14996136  0.41697314     0.90110
C511        C  0.34990880  0.06404895  0.41297572     0.90140
C512        C  0.41731937  0.14986384  0.36247679     0.90310
O513        O  0.16814363  0.83656731  0.37958764    -0.72000
O514        O  0.10813483  0.89019014  0.42118475    -0.72030
O515        O  0.10413899  0.84481494  0.37674782    -0.72090
O516        O  0.17249778  0.88243452  0.42393758    -0.72140
O517        O  0.17876649  0.91874602  0.38642996    -0.72070
O518        O  0.11072121  0.88186773  0.34002615    -0.72050
O519        O  0.11487626  0.92686989  0.38408361    -0.72020
O520        O  0.17429211  0.87321058  0.34229246    -0.72090
Ni521      Ni  0.13804705  0.86217209  0.40179432     1.25410
Ni522      Ni  0.14491922  0.90147413  0.36191972     1.25360
C523        C  0.18063423  0.84607295  0.35398210     0.90180
C524        C  0.10141528  0.91713751  0.40914186     0.90110
C525        C  0.09632399  0.85744275  0.35051775     0.90140
C526        C  0.18677972  0.90674004  0.41275411     0.90310
O527        O  0.77673132  0.04381864  0.18269204    -0.78470
O528        O  0.71842387  0.94316026  0.27301579    -0.63160
O529        O  0.73071457  0.01766524  0.22342612    -1.09760
C530        C  0.79726663  0.04988562  0.30748363     1.08420
O531        O  0.71291837  0.97232634  0.31602423    -0.76360
O532        O  0.71793350  0.03456592  0.31646169    -0.63950
Ni533      Ni  0.74086862  0.01557897  0.17992917     1.34870
C534        C  0.71288461  0.05726297  0.29767545     0.87160
O535        O  0.69472267  0.96209063  0.21790293    -0.76900
O536        O  0.70655284  0.98663834  0.17246982    -0.87180
C537        C  0.70932564  0.94658343  0.30126786     0.86730
O538        O  0.77013501  0.98110245  0.18169958    -0.65380
O539        O  0.78225377  0.03002327  0.32431084    -0.84670
C540        C  0.77344427  0.95751595  0.19982255     0.87560
C541        C  0.69165817  0.96586958  0.18836554     1.09130
H542        H  0.77611029  0.98604108  0.27181118     0.40930
O543        O  0.75640336  0.99793480  0.27387457    -1.07330
O544        O  0.72807950  0.06045723  0.27192606    -0.63980
Ni545      Ni  0.76155394  0.03616199  0.25075540     1.26350
O546        O  0.75808196  0.95453564  0.22548870    -0.64210
O547        O  0.79284596  0.05335676  0.27827482    -0.76500
C548        C  0.78193815  0.06820344  0.19938772     0.86940
O549        O  0.76765836  0.07237740  0.22514899    -0.63680
Ni550      Ni  0.74802533  0.00081322  0.31771317     1.27450
Ni551      Ni  0.72513131  0.97937479  0.24661341     1.26060
H552        H  0.71099089  0.02960359  0.22503906     0.41490
O553        O  0.71902248  0.18872481  0.96990698    -0.78470
O554        O  0.81617386  0.28107525  0.03497868    -0.63160
O555        O  0.74223877  0.23229220  0.01493117    -1.09760
C556        C  0.71076455  0.31343090  0.94906152     1.08420
O557        O  0.79578708  0.32912638  0.02556949    -0.76360
O558        O  0.73311482  0.31871645  0.03217317    -0.63950
Ni559      Ni  0.74600836  0.18789464  0.00612142     1.34870
C560        C  0.70681397  0.30409188  0.03109643     0.87160
O561        O  0.79306509  0.22803988  0.05713715    -0.76900
O562        O  0.77346169  0.18134619  0.04116165    -0.87180
C563        C  0.81635705  0.31097189  0.03817246     0.86730
O564        O  0.78134507  0.19110185  0.97843894    -0.65380
O565        O  0.72374989  0.33084295  0.96977130    -0.84670
C566        C  0.80510596  0.20948428  0.97731270     0.87560
C567        C  0.79055504  0.19810068  0.05920074     1.09130
H568        H  0.78057105  0.27998209  0.97235995     0.40930
O569        O  0.76623500  0.28221428  0.98997237    -1.07330
O570        O  0.70074749  0.28289066  0.01044694    -0.63980
Ni571      Ni  0.72829699  0.25859695  0.98153657     1.26350
O572        O  0.80832493  0.23359692  0.99500449    -0.64210
O573        O  0.71623790  0.28413803  0.94712281    -0.76500
C574        C  0.69537029  0.20587871  0.96214891     0.86940
O575        O  0.69168684  0.23351320  0.97294678    -0.63680
Ni576      Ni  0.76015940  0.32654308  0.99751811     1.27450
Ni577      Ni  0.78014484  0.25566749  0.02414219     1.26060
H578        H  0.72774071  0.23456802  0.03247834     0.41490
C579        C  0.30971594  0.31015818  0.76155200     0.05550
C580        C  0.31913237  0.28153792  0.77557981    -0.10600
C581        C  0.30245931  0.26997719  0.80169392     0.03050
C582        C  0.27636127  0.28695109  0.81377541    -0.09120
C583        C  0.26683558  0.31553677  0.80000558     0.05550
C584        C  0.28351103  0.32715249  0.77385201    -0.08540
H585        H  0.33957719  0.26853161  0.76647654     0.11140
H586        H  0.26376415  0.27815021  0.83419942     0.08670
H587        H  0.27634654  0.34945409  0.76333165     0.08520
C588        C  0.48630737  0.30485492  0.94719522     0.05550
C589        C  0.47316967  0.27795564  0.93284882    -0.10600
C590        C  0.44683216  0.26279725  0.94657305     0.03050
C591        C  0.43378527  0.27469556  0.97456600    -0.09120
C592        C  0.44701526  0.30156760  0.98873982     0.05550
C593        C  0.47326216  0.31648424  0.97510672    -0.08540
H594        H  0.48304125  0.26919567  0.91096519     0.11140
H595        H  0.41309714  0.26342917  0.98497763     0.08670
H596        H  0.48316269  0.33754069  0.98590938     0.08520
C597        C  0.44433551  0.50553347  0.80554391     0.05550
C598        C  0.43191919  0.49254648  0.77782586    -0.10600
C599        C  0.44630749  0.46560656  0.76443204     0.03050
C600        C  0.47302933  0.45172975  0.77864991    -0.09120
C601        C  0.48543382  0.46450176  0.80626044     0.05550
C602        C  0.47113716  0.49143074  0.81972865    -0.08540
H603        H  0.41095195  0.50305230  0.76700372     0.11140
H604        H  0.48386299  0.43066195  0.76849397     0.08670
H605        H  0.48055339  0.50110376  0.84136205     0.08520
C606        C  0.30643586  0.45615380  0.99605807     0.05550
C607        C  0.28025391  0.44506207  0.97862833    -0.10600
C608        C  0.26940862  0.46201376  0.95235742     0.03050
C609        C  0.28461795  0.48998168  0.94357465    -0.09120
C610        C  0.31069827  0.50121545  0.96065283     0.05550
C611        C  0.32168718  0.48434035  0.98694464    -0.08540
H612        H  0.26859844  0.42319575  0.98527362     0.11140
H613        H  0.27637275  0.50286076  0.92309764     0.08670
H614        H  0.34214640  0.49286585  0.99997616     0.08520
O615        O  0.33325622  0.58779211  0.89457253    -0.72000
O616        O  0.36831939  0.65180820  0.84085216    -0.72030
O617        O  0.37192022  0.58775930  0.84357473    -0.72090
O618        O  0.32919563  0.65224274  0.89219458    -0.72140
O619        O  0.37106509  0.65395909  0.92448169    -0.72070
O620        O  0.41495276  0.59201057  0.87416157    -0.72050
O621        O  0.40982820  0.65614195  0.87332974    -0.72020
O622        O  0.37650970  0.59010427  0.92509481    -0.72090
Ni623      Ni  0.34910637  0.61987669  0.86668667     1.25410
Ni624      Ni  0.39461627  0.62330629  0.90032441     1.25360
C625        C  0.34945020  0.57804074  0.91818660     0.90180
C626        C  0.39504649  0.66436511  0.84829267     0.90110
C627        C  0.40036509  0.57928066  0.85102673     0.90140
C628        C  0.34278849  0.66294459  0.91694260     0.90310
O629        O  0.57197563  0.39472126  0.84098680    -0.72000
O630        O  0.63633183  0.35354547  0.89093909    -0.72030
O631        O  0.57201874  0.34782867  0.88423940    -0.72090
O632        O  0.63650314  0.39917192  0.84724162    -0.72140
O633        O  0.62973368  0.43547647  0.88478085    -0.72070
O634        O  0.56454906  0.38392066  0.92191612    -0.72050
O635        O  0.62871503  0.38982483  0.92837750    -0.72020
O636        O  0.56528211  0.43080739  0.87879790    -0.72090
Ni637      Ni  0.60438304  0.37250517  0.86447912     1.25410
Ni638      Ni  0.59674118  0.41130116  0.90479783     1.25360
C639        C  0.55811382  0.41955951  0.85195266     0.90180
C640        C  0.64349247  0.36558436  0.91764214     0.90110
C641        C  0.55773320  0.35737397  0.90900174     0.90140
C642        C  0.64435006  0.42526709  0.86029973     0.90310
O643        O  0.38605188  0.34262813  0.67988819    -0.72000
O644        O  0.42954376  0.39148127  0.61660164    -0.72030
O645        O  0.42577668  0.39318643  0.68035371    -0.72090
O646        O  0.38979046  0.34081909  0.61610024    -0.72140
O647        O  0.34797315  0.37371785  0.61281867    -0.72070
O648        O  0.38322148  0.42530793  0.67783797    -0.72050
O649        O  0.38770820  0.42449056  0.61475539    -0.72020
O650        O  0.34378159  0.37495580  0.67625298    -0.72090
Ni651      Ni  0.40931679  0.36580184  0.64829375     1.25410
Ni652      Ni  0.36418119  0.40069958  0.64519751     1.25360
C653        C  0.35791611  0.35112456  0.68864975     0.90180
C654        C  0.41589925  0.41652545  0.60588102     0.90110
C655        C  0.41017706  0.41760979  0.68978995     0.90140
C656        C  0.36293253  0.34868856  0.60391163     0.90310
O657        O  0.36933102  0.41242409  0.08095529    -0.72000
O658        O  0.41195205  0.35934745  0.14115743    -0.72030
O659        O  0.41464994  0.36632603  0.07791415    -0.72090
O660        O  0.36601347  0.40498188  0.14425954    -0.72140
O661        O  0.32888003  0.36763049  0.13871315    -0.72070
O662        O  0.37615480  0.33040814  0.07166343    -0.72050
O663        O  0.37476713  0.32230012  0.13436478    -0.72020
O664        O  0.33097143  0.37631042  0.07547303    -0.72090
Ni665      Ni  0.39181565  0.38713402  0.11133268     1.25410
Ni666      Ni  0.35128738  0.34793585  0.10491678     1.25360
C667        C  0.34348602  0.40293728  0.06802050     0.90180
C668        C  0.40078001  0.33179284  0.14711943     0.90110
C669        C  0.40310391  0.34208432  0.06390741     0.90140
C670        C  0.33953215  0.39226435  0.15252968     0.90310
O671        O  0.40540435  0.17525022  0.88198304    -0.72000
O672        O  0.34799031  0.11324851  0.84755615    -0.72030
O673        O  0.35774441  0.17652295  0.83911754    -0.72090
O674        O  0.39608847  0.11208666  0.88968862    -0.72140
O675        O  0.36027056  0.12190308  0.92735630    -0.72070
O676        O  0.32309893  0.18790727  0.87745162    -0.72050
O677        O  0.31236848  0.12518357  0.88481165    -0.72020
O678        O  0.37037298  0.18494167  0.92040361    -0.72090
Ni679      Ni  0.37806124  0.14387972  0.86321038     1.25410
Ni680      Ni  0.34029205  0.15528561  0.90390463     1.25360
C681        C  0.39706168  0.19032643  0.90681696     0.90180
C682        C  0.32054630  0.10938729  0.86046559     0.90110
C683        C  0.33461722  0.19309603  0.85013554     0.90140
C684        C  0.38428437  0.10621574  0.91669642     0.90310
O685        O  0.18974736  0.43988132  0.87154366    -0.72000
O686        O  0.12262967  0.40077313  0.82349609    -0.72030
O687        O  0.12543383  0.44831675  0.86610478    -0.72090
O688        O  0.18728197  0.39356403  0.82760714    -0.72140
O689        O  0.18119029  0.35803487  0.86583048    -0.72070
O690        O  0.11697993  0.41192770  0.90306403    -0.72050
O691        O  0.11674011  0.36462023  0.86112498    -0.72020
O692        O  0.18142837  0.40452600  0.90952291    -0.72090
Ni693      Ni  0.15655566  0.42190716  0.84578498     1.25410
Ni694      Ni  0.14888825  0.38354821  0.88626175     1.25360
C695        C  0.19648315  0.42826575  0.89853437     0.90180
C696        C  0.10842342  0.37640892  0.83482066     0.90110
C697        C  0.11037937  0.43875506  0.89032519     0.90140
C698        C  0.19470619  0.36719979  0.84043117     0.90310
C699        C  0.68889876  0.73388598  0.20436280     0.05550
C700        C  0.71643278  0.72146903  0.18986450    -0.10600
C701        C  0.73219593  0.69516931  0.20288514     0.03050
C702        C  0.72056468  0.68140493  0.23034604    -0.09120
C703        C  0.69315998  0.69365442  0.24481801     0.05550
C704        C  0.67729004  0.71991654  0.23189047    -0.08540
H705        H  0.72526487  0.73191335  0.16834716     0.11140
H706        H  0.73248611  0.66077590  0.24012841     0.08670
H707        H  0.65577828  0.72912443  0.24292395     0.08520
O708        O  0.66610292  0.61891546  0.32661933    -0.72000
O709        O  0.61966036  0.56976088  0.38732407    -0.72030
O710        O  0.62088548  0.57364219  0.32417468    -0.72090
O711        O  0.66707789  0.61492394  0.38980603    -0.72140
O712        O  0.62956016  0.65257602  0.39257658    -0.72070
O713        O  0.58283820  0.61091378  0.32634261    -0.72050
O714        O  0.58243714  0.60774369  0.38991668    -0.72020
O715        O  0.62812212  0.65626097  0.32927309    -0.72090
Ni716      Ni  0.64476930  0.59297155  0.35712206     1.25410
Ni717      Ni  0.60439105  0.63321355  0.35978658     1.25360
C718        C  0.65417033  0.64545573  0.31772487     0.90180
C719        C  0.59267381  0.58021183  0.39758093     0.90110
C720        C  0.59475305  0.58563336  0.31411926     0.90140
C721        C  0.65672594  0.64107701  0.40122577     0.90310
C722        C  0.73451728  0.55699012  0.04211267     0.05550
C723        C  0.72173448  0.57042588  0.01476104    -0.10600
C724        C  0.69615897  0.55567849  0.99939127     0.03050
C725        C  0.68345889  0.52762206  0.01131104    -0.09120
C726        C  0.69613619  0.51426504  0.03857422     0.05550
C727        C  0.72166561  0.52886340  0.05398482    -0.08540
H728        H  0.73135039  0.59240030  0.00572386     0.11140
H729        H  0.66336579  0.51649715  0.99969861     0.08670
H730        H  0.73117260  0.51863401  0.07535818     0.08520
C731        C  0.51252238  0.69692600  0.04447777     0.05550
C732        C  0.52560929  0.68551352  0.01626694    -0.10600
C733        C  0.55162738  0.70111709  0.00239351     0.03050
C734        C  0.56444654  0.72803688  0.01663244    -0.09120
C735        C  0.55157112  0.73941080  0.04472756     0.05550
C736        C  0.52557681  0.72394586  0.05862753    -0.08540
H737        H  0.51594849  0.66438551  0.00544725     0.11140
H738        H  0.58486376  0.73975795  0.00617844     0.08670
H739        H  0.51588211  0.73260598  0.08063608     0.08520
C740        C  0.55261890  0.50999483  0.19191273     0.05550
C741        C  0.56674810  0.52027529  0.22009241    -0.10600
C742        C  0.55343067  0.54604960  0.23671716     0.03050
C743        C  0.52618534  0.56137048  0.22516795    -0.09120
C744        C  0.51218551  0.55135135  0.19721224     0.05550
C745        C  0.52528959  0.52567112  0.18061201    -0.08540
H746        H  0.58809050  0.50857632  0.22880723     0.11140
H747        H  0.51615054  0.58149202  0.23770630     0.08670
H748        H  0.51450239  0.51819180  0.15874075     0.08520
O749        O  0.43034181  0.62821422  0.16643688    -0.72000
O750        O  0.36559443  0.67261957  0.11962216    -0.72030
O751        O  0.36545968  0.63276181  0.16881960    -0.72090
O752        O  0.43064572  0.66885705  0.11725845    -0.72140
O753        O  0.42810705  0.62725187  0.08501748    -0.72070
O754        O  0.36087378  0.59197906  0.13583326    -0.72050
O755        O  0.36370951  0.63156224  0.08661164    -0.72020
O756        O  0.42575905  0.58682970  0.13410528    -0.72090
Ni757      Ni  0.39819591  0.65210064  0.14425493     1.25410
Ni758      Ni  0.39451262  0.60793674  0.10926518     1.25360
C759        C  0.43859707  0.60025722  0.15770085     0.90180
C760        C  0.35397382  0.65886395  0.09541465     0.90110
C761        C  0.35188233  0.60699927  0.16052464     0.90140
C762        C  0.44017772  0.65398180  0.09279460     0.90310
O763        O  0.61657344  0.42452627  0.14629607    -0.72000
O764        O  0.65409750  0.36111794  0.09286505    -0.72030
O765        O  0.66069271  0.42468165  0.09986568    -0.72090
O766        O  0.61018418  0.36111691  0.13906684    -0.72140
O767        O  0.57176724  0.36841504  0.10349291    -0.72070
O768        O  0.62182117  0.43304628  0.06492698    -0.72050
O769        O  0.61606981  0.36945670  0.05718650    -0.72020
O770        O  0.57756989  0.43213792  0.11141424    -0.72090
Ni771      Ni  0.63674066  0.39256700  0.12075567     1.25410
Ni772      Ni  0.59537720  0.40104734  0.08298958     1.25360
C773        C  0.59098356  0.43879558  0.13760750     0.90180
C774        C  0.64141403  0.35487630  0.06623068     0.90110
C775        C  0.64936603  0.43944973  0.07619098     0.90140
C776        C  0.58287948  0.35410412  0.12756688     0.90310
O777        O  0.62775108  0.59119324  0.91364511    -0.72000
O778        O  0.58777512  0.64304422  0.85054875    -0.72030
O779        O  0.63047204  0.59395374  0.85047252    -0.72090
O780        O  0.58467019  0.63907497  0.91376509    -0.72140
O781        O  0.62484813  0.67343843  0.91801708    -0.72070
O782        O  0.67059580  0.62849047  0.85309848    -0.72050
O783        O  0.62777671  0.67754955  0.85488648    -0.72020
O784        O  0.66800232  0.62563893  0.91639534    -0.72090
Ni785      Ni  0.60624469  0.61558739  0.88180968     1.25410
Ni786      Ni  0.64924414  0.65253773  0.88555822     1.25360
C787        C  0.65431458  0.60031552  0.92550181     0.90180
C788        C  0.60084144  0.66950739  0.84334784     0.90110
C789        C  0.65829964  0.60300152  0.84207592     0.90140
C790        C  0.59739724  0.66319928  0.92667165     0.90310
O791        O  0.81801721  0.66669075  0.13328542    -0.72000
O792        O  0.88120175  0.62481896  0.08394281    -0.72030
O793        O  0.81661720  0.62648370  0.08396486    -0.72090
O794        O  0.88307257  0.66447661  0.13310268    -0.72140
O795        O  0.88113345  0.62349670  0.16604935    -0.72070
O796        O  0.81665996  0.58459059  0.11587407    -0.72050
O797        O  0.88192358  0.58379283  0.11694230    -0.72020
O798        O  0.81612300  0.62495389  0.16534560    -0.72090
Ni799      Ni  0.84970897  0.64708774  0.10743943     1.25410
Ni800      Ni  0.84883786  0.60269713  0.14225491     1.25360
C801        C  0.80639985  0.65257112  0.15712776     0.90180
C802        C  0.89264207  0.59814171  0.09269334     0.90110
C803        C  0.80594998  0.59924881  0.09181362     0.90140
C804        C  0.89337637  0.64977773  0.15737593     0.90310
O805        O  0.62224735  0.82068687  0.08602497    -0.72000
O806        O  0.66022297  0.88369184  0.13891028    -0.72030
O807        O  0.66026980  0.81924165  0.13724052    -0.72090
O808        O  0.62352688  0.88481970  0.08737622    -0.72140
O809        O  0.58075425  0.88675874  0.11868204    -0.72070
O810        O  0.61642953  0.81803058  0.16714429    -0.72050
O811        O  0.61764792  0.88210887  0.17052531    -0.72020
O812        O  0.57840061  0.82226935  0.11595847    -0.72090
Ni813      Ni  0.64313831  0.85207078  0.11132084     1.25410
Ni814      Ni  0.59670215  0.85226693  0.14414242     1.25360
C815        C  0.59392376  0.81128242  0.09250677     0.90180
C816        C  0.64492094  0.89334138  0.16325210     0.90110
C817        C  0.64440216  0.80760352  0.16004555     0.90140
C818        C  0.59668864  0.89715128  0.09509999     0.90310
O819        O  0.77123409  0.54963595  0.67893202    -0.78470
O820        O  0.71918113  0.45120829  0.77958413    -0.63160
O821        O  0.73443115  0.52352043  0.72836799    -1.09760
C822        C  0.81107602  0.55107169  0.80296157     1.08420
O823        O  0.72469943  0.47617983  0.82494884    -0.76360
O824        O  0.72717155  0.53784594  0.81638690    -0.63950
Ni825      Ni  0.73981180  0.51682355  0.68420311     1.34870
C826        C  0.72690288  0.56238143  0.79936887     0.87160
O827        O  0.68972882  0.47490454  0.73072415    -0.76900
O828        O  0.70899352  0.48301630  0.68277405    -0.87180
C829        C  0.71244298  0.45454549  0.80825506     0.86730
O830        O  0.77359929  0.48732558  0.68987700    -0.65380
O831        O  0.79245426  0.53708044  0.82204973    -0.84670
C832        C  0.77197579  0.46133094  0.70463616     0.87560
C833        C  0.68971515  0.46956090  0.70160589     1.09130
H834        H  0.78122796  0.48482239  0.77259586     0.40930
O835        O  0.76391860  0.49967502  0.77590344    -1.07330
O836        O  0.74520772  0.56573098  0.77575129    -0.63980
Ni837      Ni  0.77143713  0.53665381  0.75105779     1.26350
O838        O  0.75301951  0.45738587  0.72782118    -0.64210
O839        O  0.80864062  0.54848667  0.77355334    -0.76500
C840        C  0.78321369  0.57115926  0.69603876     0.86940
O841        O  0.77888428  0.57231806  0.72526391    -0.63680
Ni842      Ni  0.75894679  0.50598397  0.82028337     1.27450
Ni843      Ni  0.72695355  0.48655585  0.75324491     1.26060
H844        H  0.71700313  0.53839130  0.73149960     0.41490
O845        O  0.97058783  0.05321040  0.57387785    -0.78470
O846        O  0.02565752  0.94762832  0.48896565    -0.63160
O847        O  0.01432494  0.02362375  0.53512622    -1.09760
C848        C  0.94213425  0.04696488  0.45170658     1.08420
O849        O  0.03067000  0.97641232  0.44596704    -0.76360
O850        O  0.01495451  0.03696807  0.43647435    -0.63950
Ni851      Ni  0.00492151  0.02375095  0.57845453     1.34870
C852        C  0.02665070  0.05768990  0.45466697     0.87160
O853        O  0.05202704  0.97001464  0.54134003    -0.76900
O854        O  0.03869260  0.99417764  0.58670664    -0.87180
C855        C  0.03726951  0.95183403  0.46189240     0.86730
O856        O  0.97415108  0.99055529  0.57862912    -0.65380
O857        O  0.95213746  0.02192383  0.43816195    -0.84670
C858        C  0.97170414  0.96540230  0.56252112     0.87560
C859        C  0.05539248  0.97472297  0.57066957     1.09130
H860        H  0.96680406  0.98996495  0.49227500     0.40930
O861        O  0.98643711  0.00092222  0.48750972    -1.07330
O862        O  0.01878051  0.05994258  0.48346103    -0.63980
Ni863      Ni  0.98374981  0.04109975  0.50683445     1.26350
O864        O  0.98817436  0.96029234  0.53780904    -0.64210
O865        O  0.95325149  0.05749147  0.47751165    -0.76500
C866        C  0.96519167  0.07653287  0.55575651     0.86940
O867        O  0.97946042  0.07946433  0.52976994    -0.63680
Ni868      Ni  0.99115496  0.99903405  0.44345147     1.27450
Ni869      Ni  0.01931478  0.98451706  0.51386697     1.26060
H870        H  0.03418737  0.03498988  0.53291323     0.41490
C871        C  0.55182590  0.02970394  0.69731926     0.05550
C872        C  0.52491991  0.04221367  0.68209525    -0.10600
C873        C  0.50762461  0.06713636  0.69584379     0.03050
C874        C  0.51733859  0.07947359  0.72486809    -0.09120
C875        C  0.54426172  0.06677838  0.73999686     0.05550
C876        C  0.56138353  0.04188279  0.72621339    -0.08540
H877        H  0.51774009  0.03288663  0.65949732     0.11140
H878        H  0.50438987  0.09916049  0.73532554     0.08670
H879        H  0.58248289  0.03236569  0.73770254     0.08520
C880        C  0.73423897  0.07217024  0.54973948     0.05550
C881        C  0.71965467  0.04430959  0.56041265    -0.10600
C882        C  0.69425156  0.03086632  0.54364635     0.03050
C883        C  0.68351301  0.04530428  0.51601547    -0.09120
C884        C  0.69793214  0.07314717  0.50511306     0.05550
C885        C  0.72333482  0.08655449  0.52200434    -0.08540
H886        H  0.72778755  0.03332931  0.58196101     0.11140
H887        H  0.66362363  0.03515679  0.50325992     0.08670
H888        H  0.73430191  0.10823546  0.51381523     0.08520
C889        C  0.54756164  0.20848636  0.50348549     0.05550
C890        C  0.56429375  0.23295592  0.51852170    -0.10600
C891        C  0.55285426  0.24559801  0.54688350     0.03050
C892        C  0.52478161  0.23393169  0.56017507    -0.09120
C893        C  0.50797316  0.20958547  0.54551570     0.05550
C894        C  0.51931958  0.19677155  0.51712342    -0.08540
H895        H  0.58626506  0.24186786  0.50839619     0.11140
H896        H  0.51618620  0.24358390  0.58223849     0.08670
H897        H  0.50651046  0.17758371  0.50594930     0.08520
O898        O  0.57659063  0.13617955  0.42082201    -0.72000
O899        O  0.62148078  0.08501084  0.36068092    -0.72030
O900        O  0.62659694  0.09557570  0.42295139    -0.72090
O901        O  0.57080473  0.12587141  0.35812749    -0.72140
O902        O  0.60420898  0.16566659  0.34852473    -0.72070
O903        O  0.66045537  0.13512526  0.41351670    -0.72050
O904        O  0.65502923  0.12462024  0.35063716    -0.72020
O905        O  0.61017807  0.17599896  0.41164413    -0.72090
Ni906      Ni  0.59767736  0.10929934  0.39081227     1.25410
Ni907      Ni  0.63363100  0.15183931  0.38060566     1.25360
C908        C  0.58657963  0.16413937  0.42677793     0.90180
C909        C  0.64604281  0.09591377  0.34643108     0.90110
C910        C  0.65238691  0.11048897  0.42911851     0.90140
C911        C  0.57800857  0.15096496  0.34290409     0.90310
O912        O  0.41890886  0.10499290  0.62909451    -0.72000
O913        O  0.35304140  0.15976789  0.59616742    -0.72030
O914        O  0.41690701  0.15164028  0.58564001    -0.72090
O915        O  0.35523217  0.11227063  0.63838305    -0.72140
O916        O  0.36442662  0.14795205  0.67588251    -0.72070
O917        O  0.42769841  0.18689889  0.62315910    -0.72050
O918        O  0.36396859  0.19533651  0.63329869    -0.72020
O919        O  0.42815633  0.14051450  0.66678671    -0.72090
Ni920      Ni  0.38563816  0.13094138  0.61094507     1.25410
Ni921      Ni  0.39639831  0.16896591  0.65111528     1.25360
C922        C  0.43420955  0.11401115  0.65352898     0.90180
C923        C  0.34771819  0.18660693  0.60952227     0.90110
C924        C  0.43284310  0.17520887  0.59582977     0.90140
C925        C  0.34959151  0.12351227  0.66566312     0.90310
C926        C  0.70441353  0.24838588  0.70489588     0.05550
C927        C  0.73348469  0.23407779  0.69740118    -0.10600
C928        C  0.74415338  0.20805573  0.71455449     0.03050
C929        C  0.72610195  0.19649845  0.73956477    -0.09120
C930        C  0.69697810  0.21107753  0.74724506     0.05550
C931        C  0.68603760  0.23708815  0.72991375    -0.08540
H932        H  0.74712818  0.24232745  0.67738010     0.11140
H933        H  0.73409468  0.17564669  0.75223295     0.08670
H934        H  0.66305331  0.24785554  0.73526517     0.09160
O935        O  0.63738281  0.32588629  0.66411669    -0.72000
O936        O  0.58817824  0.38847171  0.62300925    -0.72030
O937        O  0.58981048  0.32435970  0.62136205    -0.72090
O938        O  0.63603526  0.38998635  0.66415906    -0.72140
O939        O  0.67167476  0.38990870  0.62511410    -0.72070
O940        O  0.62537573  0.32597556  0.58229130    -0.72050
O941        O  0.62365074  0.39031801  0.58385057    -0.72020
O942        O  0.67309602  0.32596773  0.62507681    -0.72090
Ni943      Ni  0.61156025  0.35700208  0.64455074     1.25410
Ni944      Ni  0.64972944  0.35796575  0.60263442     1.25360
C945        C  0.66321027  0.31584625  0.65164452     0.90180
C946        C  0.59825924  0.40054115  0.59753451     0.90110
C947        C  0.60012730  0.31463997  0.59467560     0.90140
C948        C  0.66112761  0.40115646  0.65093061     0.90310
O949        O  0.62841603  0.94959902  0.66067929    -0.72000
O950        O  0.66559718  0.88063715  0.61403420    -0.72030
O951        O  0.66692500  0.94522149  0.60984446    -0.72090
O952        O  0.62816287  0.88576841  0.66545476    -0.72140
O953        O  0.58599029  0.88245953  0.63361168    -0.72070
O954        O  0.62322720  0.94564218  0.57983836    -0.72050
O955        O  0.62318226  0.88148535  0.58229176    -0.72020
O956        O  0.58475934  0.94670543  0.63069505    -0.72090
Ni957      Ni  0.64891175  0.91537226  0.63853955     1.25410
Ni958      Ni  0.60275650  0.91403694  0.60549026     1.25360
C959        C  0.60023379  0.95903810  0.65331119     0.90180
C960        C  0.64993096  0.86958423  0.59064991     0.90110
C961        C  0.65126977  0.95587382  0.58635976     0.90140
C962        C  0.60107408  0.87390823  0.65844757     0.90310
O963        O  0.82446977  0.17499807  0.64505956    -0.72000
O964        O  0.88442420  0.13153034  0.59249894    -0.72030
O965        O  0.81964347  0.13652198  0.59412386    -0.72090
O966        O  0.88888545  0.17001872  0.64293242    -0.72140
O967        O  0.88660864  0.12774935  0.67418574    -0.72070
O968        O  0.81639676  0.09498704  0.62628345    -0.72050
O969        O  0.88038473  0.08941355  0.62391296    -0.72020
O970        O  0.82246679  0.13312103  0.67700955    -0.72090
Ni971      Ni  0.85436745  0.15480528  0.61747723     1.25410
Ni972      Ni  0.85138839  0.10982045  0.65145285     1.25360
C973        C  0.81413727  0.16125733  0.66975862     0.90180
C974        C  0.89214965  0.10316259  0.59993741     0.90110
C975        C  0.80678232  0.11025179  0.60210633     0.90140
C976        C  0.89909997  0.15435023  0.66663095     0.90310
O977        O  0.66124109  0.13705815  0.82014281    -0.72000
O978        O  0.62565617  0.08478141  0.88384900    -0.72030
O979        O  0.61608495  0.09166256  0.82127766    -0.72090
O980        O  0.67016587  0.13012078  0.88234297    -0.72140
O981        O  0.63273058  0.16689247  0.89175197    -0.72070
O982        O  0.57866186  0.12852445  0.83049500    -0.72050
O983        O  0.58808617  0.12143650  0.89312856    -0.72020
O984        O  0.62391503  0.17403801  0.82937380    -0.72090
Ni985      Ni  0.64457961  0.10955129  0.85150803     1.25410
Ni986      Ni  0.60443038  0.14900877  0.86147560     1.25360
C987        C  0.64864537  0.16412086  0.81456968     0.90180
C988        C  0.60159029  0.09488753  0.89950696     0.90110
C989        C  0.58871256  0.10409555  0.81562146     0.90140
C990        C  0.66016897  0.15454375  0.89730444     0.90310
C991        C  0.06108983  0.75291817  0.55769066     0.05550
C992        C  0.03325585  0.74421478  0.57408543    -0.10600
C993        C  0.01517746  0.71819894  0.56389823     0.03050
C994        C  0.02495743  0.70104004  0.53745627    -0.09120
C995        C  0.05262800  0.70958499  0.52121512     0.05550
C996        C  0.07067127  0.73552917  0.53126610    -0.08540
H997        H  0.02593348  0.75735399  0.59475480     0.11140
H998        H  0.01127265  0.68070300  0.52977781     0.08670
H999        H  0.09232615  0.74189805  0.51881609     0.08520
O1000       O  0.07502615  0.62754131  0.44411992    -0.72000
O1001       O  0.11634154  0.57396586  0.38334407    -0.72030
O1002       O  0.12188845  0.58298313  0.44613955    -0.72090
O1003       O  0.06933055  0.61820756  0.38109370    -0.72140
O1004       O  0.10523743  0.65624426  0.37320281    -0.72070
O1005       O  0.15866120  0.62007514  0.43742193    -0.72050
O1006       O  0.15179866  0.61226186  0.37447499    -0.72020
O1007       O  0.11191691  0.66470577  0.43602446    -0.72090
Ni1008     Ni  0.09430327  0.59935391  0.41401805     1.25410
Ni1009     Ni  0.13320370  0.63964916  0.40503203     1.25360
C1010       C  0.08705289  0.65469695  0.45022788     0.90180
C1011       C  0.14044098  0.58484998  0.36837218     0.90110
C1012       C  0.14886255  0.59566899  0.45240069     0.90140
C1013       C  0.07882688  0.64269083  0.36609000     0.90310
C1014       C  0.21029590  0.75385719  0.70262987     0.05550
C1015       C  0.19351673  0.74159535  0.72803877    -0.10600
C1016       C  0.20212270  0.71220236  0.74027086     0.03050
C1017       C  0.22776988  0.69509557  0.72730800    -0.09120
C1018       C  0.24462846  0.70766350  0.70183332     0.05550
C1019       C  0.23590697  0.73710372  0.68951801    -0.08540
H1020       H  0.17311409  0.75439632  0.73756982     0.11140
H1021       H  0.23407840  0.67194962  0.73649550     0.08670
H1022       H  0.24833033  0.74647074  0.66923889     0.08520
C1023       C  0.23985091  0.54879679  0.56316943     0.05550
C1024       C  0.22591063  0.56462044  0.53759404    -0.10600
C1025       C  0.19790381  0.55284433  0.52382635     0.03050
C1026       C  0.18398168  0.52519826  0.53575423    -0.09120
C1027       C  0.19789238  0.50941178  0.56128132     0.05550
C1028       C  0.22581411  0.52121839  0.57491523    -0.08540
H1029       H  0.23657014  0.58618430  0.52872563     0.11140
H1030       H  0.16210873  0.51624053  0.52548675     0.08670
H1031       H  0.23628513  0.50928030  0.59495568     0.08520
O1032       O  0.32681037  0.63358769  0.67144406    -0.72000
O1033       O  0.39219704  0.58616400  0.63028746    -0.72030
O1034       O  0.39147740  0.63639423  0.66941201    -0.72090
O1035       O  0.32724994  0.58364954  0.63164700    -0.72140
O1036       O  0.32526574  0.61639278  0.59061706    -0.72070
O1037       O  0.38824439  0.66880068  0.62821179    -0.72050
O1038       O  0.39015030  0.61883956  0.58922008    -0.72020
O1039       O  0.32380751  0.66622285  0.63035163    -0.72090
Ni1040     Ni  0.35951567  0.60869705  0.65215266     1.25410
Ni1041     Ni  0.35674692  0.64368882  0.60812050     1.25360
C1042       C  0.31468689  0.65765239  0.65769819     0.90180
C1043       C  0.40239718  0.59498004  0.60345693     0.90110
C1044       C  0.40033312  0.66133956  0.65468248     0.90140
C1045       C  0.31555952  0.59177147  0.60504813     0.90310
C1046       C  0.04054108  0.52153868  0.69612831     0.05550
C1047       C  0.05816039  0.53281041  0.72150548    -0.10600
C1048       C  0.04847208  0.56036121  0.73696863     0.03050
C1049       C  0.02089482  0.57666192  0.72729050    -0.09120
C1050       C  0.00310460  0.56530035  0.70188957     0.05550
C1051       C  0.01295547  0.53764489  0.68629672    -0.08540
H1052       H  0.07979850  0.52055349  0.72875965     0.11140
H1053       H  0.01374058  0.59840112  0.73899907     0.08670
H1054       H  0.99967323  0.52913011  0.66619867     0.08520
O1055       O  0.12164140  0.42991957  0.58492695    -0.72000
O1056       O  0.06048079  0.37585720  0.62370651    -0.72030
O1057       O  0.07125909  0.43825422  0.62361614    -0.72090
O1058       O  0.11130440  0.36659928  0.58530596    -0.72140
O1059       O  0.14491560  0.36172380  0.62564691    -0.72070
O1060       O  0.10264130  0.43173380  0.66548858    -0.72050
O1061       O  0.09347859  0.36834282  0.66416612    -0.72020
O1062       O  0.15358104  0.42551230  0.62662173    -0.72090
Ni1063     Ni  0.09015358  0.40272874  0.60283785     1.25410
Ni1064     Ni  0.12489693  0.39656850  0.64697358     1.25360
C1065       C  0.14707327  0.43734494  0.59972053     0.90180
C1066       C  0.06655246  0.36386110  0.65051748     0.90110
C1067       C  0.08011768  0.44631449  0.65110912     0.90140
C1068       C  0.13466753  0.35253185  0.59893277     0.90310
O1069       O  0.91721690  0.63846756  0.66917326    -0.72000
O1070       O  0.85712243  0.68160035  0.61575341    -0.72030
O1071       O  0.85337821  0.63430878  0.65801862    -0.72090
O1072       O  0.92125409  0.68630763  0.62695251    -0.72140
O1073       O  0.93130036  0.65054560  0.58955519    -0.72070
O1074       O  0.86251167  0.59938347  0.61968005    -0.72050
O1075       O  0.86790786  0.64669136  0.57777466    -0.72020
O1076       O  0.92606379  0.60288731  0.63130983    -0.72090
Ni1077     Ni  0.88688939  0.66146979  0.64386758     1.25410
Ni1078     Ni  0.89726138  0.62362898  0.60326181     1.25360
C1079       C  0.93148942  0.61362921  0.65878244     0.90180
C1080       C  0.85279554  0.67105328  0.58789064     0.90110
C1081       C  0.84660594  0.60849369  0.64374196     0.90140
C1082       C  0.93761412  0.67671599  0.60335359     0.90310
O1083       O  0.14017690  0.83533894  0.58455405    -0.72000
O1084       O  0.18329653  0.90104920  0.63121358    -0.72030
O1085       O  0.18345683  0.83711352  0.63174431    -0.72090
O1086       O  0.14081266  0.89949889  0.58282905    -0.72140
O1087       O  0.10148179  0.90125413  0.61828865    -0.72070
O1088       O  0.14298842  0.83705639  0.66605933    -0.72050
O1089       O  0.14342844  0.90040764  0.66606527    -0.72020
O1090       O  0.10000170  0.83732950  0.61904993    -0.72090
Ni1091     Ni  0.16339165  0.86827774  0.60624297     1.25410
Ni1092     Ni  0.12049984  0.86911160  0.64349215     1.25360
C1093       C  0.11296993  0.82557025  0.59453283     0.90180
C1094       C  0.17065869  0.91048526  0.65710898     0.90110
C1095       C  0.17029239  0.82700663  0.65675963     0.90140
C1096       C  0.11429789  0.91078925  0.59271126     0.90310
O1097       O  0.12639718  0.59492779  0.81619733    -0.72000
O1098       O  0.16186088  0.64475529  0.88293466    -0.72030
O1099       O  0.12438432  0.59300823  0.87902060    -0.72090
O1100       O  0.16558454  0.64540234  0.81966592    -0.72140
O1101       O  0.12249630  0.67685781  0.81668225    -0.72070
O1102       O  0.08271537  0.62640857  0.88042619    -0.72050
O1103       O  0.12039542  0.67821710  0.87964852    -0.72020
O1104       O  0.08318801  0.62635389  0.81709300    -0.72090
Ni1105     Ni  0.14616723  0.61842061  0.84950952     1.25410
Ni1106     Ni  0.10060358  0.65309318  0.84843045     1.25360
C1107       C  0.09851936  0.60257837  0.80618248     0.90180
C1108       C  0.14687372  0.66987766  0.89189659     0.90110
C1109       C  0.09709825  0.60112231  0.88966774     0.90140
C1110       C  0.15090139  0.66919429  0.80812423     0.90310
C1111       C  0.75989104  0.30447704  0.29699680     0.05550
C1112       C  0.77597856  0.31660118  0.27095863    -0.10600
C1113       C  0.80274373  0.30056231  0.25913411     0.03050
C1114       C  0.81337492  0.27255376  0.27318896    -0.09120
C1115       C  0.79717197  0.26063484  0.29921290     0.05550
C1116       C  0.77037411  0.27646732  0.31108927    -0.08540
H1117       H  0.76821688  0.33873873  0.26046855     0.11140
H1118       H  0.83468228  0.26063235  0.26451607     0.08670
H1119       H  0.75834328  0.26757446  0.33180474     0.08520
O1120       O  0.67909534  0.42604533  0.37075846    -0.72000
O1121       O  0.61289233  0.37910752  0.32842582    -0.72030
O1122       O  0.61426589  0.42620990  0.37071424    -0.72090
O1123       O  0.67802559  0.37894800  0.32746804    -0.72140
O1124       O  0.67930834  0.34384075  0.36662145    -0.72070
O1125       O  0.61363376  0.39023460  0.40907574    -0.72050
O1126       O  0.61479228  0.34348239  0.36701652    -0.72020
O1127       O  0.67849497  0.39076702  0.40970598    -0.72090
Ni1128     Ni  0.64616658  0.40390824  0.34791623     1.25410
Ni1129     Ni  0.64667800  0.36583942  0.38947500     1.25360
C1130       C  0.68937030  0.41602749  0.39731575     0.90180
C1131       C  0.60262416  0.35374320  0.34150403     0.90110
C1132       C  0.60264676  0.41540263  0.39619597     0.90140
C1133       C  0.68908281  0.35372449  0.33998037     0.90310
C1134       C  0.79715905  0.46086642  0.49049692     0.05550
C1135       C  0.77121142  0.44711855  0.47466379    -0.10600
C1136       C  0.76042269  0.46004010  0.44618478     0.03050
C1137       C  0.77551768  0.48666764  0.43366611    -0.09120
C1138       C  0.80137298  0.50037157  0.44927602     0.05550
C1139       C  0.81216154  0.48753540  0.47769293    -0.08540
H1140       H  0.75980628  0.42623053  0.48419024     0.11140
H1141       H  0.76749854  0.49640076  0.41149271     0.08670
H1142       H  0.83250625  0.49793504  0.48951727     0.08520
C1143       C  0.95369950  0.49159236  0.30722629     0.05550
C1144       C  0.94030960  0.47803614  0.28009750    -0.10600
C1145       C  0.95343322  0.44997875  0.26746229     0.03050
C1146       C  0.97982934  0.43567555  0.28194401    -0.09120
C1147       C  0.99312818  0.44902277  0.30891010     0.05550
C1148       C  0.98010384  0.47694033  0.32151235    -0.08540
H1149       H  0.91966617  0.48900492  0.26914274     0.11140
H1150       H  0.98977509  0.41388147  0.27245316     0.08670
H1151       H  0.99028092  0.48705000  0.34261462     0.08520
C1152       C  0.93774416  0.31041712  0.49676271     0.05550
C1153       C  0.92531119  0.28442734  0.48071234    -0.10600
C1154       C  0.94125261  0.27211089  0.45457514     0.03050
C1155       C  0.96994635  0.28573621  0.44439220    -0.09120
C1156       C  0.98268640  0.31187091  0.46039071     0.05550
C1157       C  0.96649044  0.32421846  0.48665076    -0.08540
H1158       H  0.90297714  0.27397989  0.48836567     0.11140
H1159       H  0.98210737  0.27627063  0.42393144     0.08670
H1160       H  0.97597704  0.34461720  0.49889621     0.08520
O1161       O  0.07669346  0.41819593  0.37965429    -0.72000
O1162       O  0.13852869  0.37541856  0.43034614    -0.72030
O1163       O  0.14171299  0.41518115  0.38061399    -0.72090
O1164       O  0.07356131  0.37823803  0.42906272    -0.72140
O1165       O  0.07320633  0.33652298  0.39686090    -0.72070
O1166       O  0.13981380  0.37384601  0.34802614    -0.72050
O1167       O  0.13841061  0.33422514  0.39749546    -0.72020
O1168       O  0.07496889  0.37651140  0.34742780    -0.72090
Ni1169     Ni  0.10771193  0.39824141  0.40608809     1.25410
Ni1170     Ni  0.10659645  0.35379763  0.37129491     1.25360
C1171       C  0.06538674  0.40421841  0.35553993     0.90180
C1172       C  0.14872069  0.34795505  0.42229023     0.90110
C1173       C  0.15188239  0.40036301  0.35625775     0.90140
C1174       C  0.06202086  0.35148061  0.42060436     0.90310
O1175       O  0.86033723  0.34291245  0.57772819    -0.72000
O1176       O  0.81844601  0.39203526  0.64280926    -0.72030
O1177       O  0.81944654  0.39298808  0.57870310    -0.72090
O1178       O  0.85860355  0.34042912  0.64111838    -0.72140
O1179       O  0.89944836  0.37409132  0.64413745    -0.72070
O1180       O  0.86177751  0.42495527  0.57890238    -0.72050
O1181       O  0.85988845  0.42508057  0.64234326    -0.72020
O1182       O  0.90240246  0.37511100  0.58078220    -0.72090
Ni1183     Ni  0.83762948  0.36591970  0.61014675     1.25410
Ni1184     Ni  0.88232719  0.40093436  0.61171072     1.25360
C1185       C  0.88835149  0.35131612  0.56872753     0.90180
C1186       C  0.83235861  0.41728891  0.65260127     0.90110
C1187       C  0.83447273  0.41691574  0.56788248     0.90140
C1188       C  0.88550015  0.34848834  0.65273587     0.90310
O1189       O  0.88463668  0.32758880  0.18598526    -0.72000
O1190       O  0.93876279  0.36531059  0.12467225    -0.72030
O1191       O  0.92984556  0.37328169  0.18744588    -0.72090
O1192       O  0.89339328  0.32007212  0.12340556    -0.72140
O1193       O  0.85705147  0.35780591  0.11410835    -0.72070
O1194       O  0.89199920  0.40976498  0.17882524    -0.72050
O1195       O  0.90172638  0.40270733  0.11654019    -0.72020
O1196       O  0.84704636  0.36418779  0.17647449    -0.72090
Ni1197     Ni  0.91306037  0.34523895  0.15577444     1.25410
Ni1198     Ni  0.87313928  0.38490971  0.14620285     1.25360
C1199       C  0.85700795  0.33964790  0.19106413     0.90180
C1200       C  0.92883821  0.38997141  0.11023108     0.90110
C1201       C  0.91663196  0.40005862  0.19378777     0.90140
C1202       C  0.86953310  0.33074733  0.10772872     0.90310
O1203       O  0.84278356  0.58471816  0.38277691    -0.72000
O1204       O  0.89688649  0.64790251  0.34565059    -0.72030
O1205       O  0.89084242  0.58354883  0.34007936    -0.72090
O1206       O  0.84820610  0.64861163  0.38734821    -0.72140
O1207       O  0.88395723  0.64268239  0.42569541    -0.72070
O1208       O  0.92589757  0.57646197  0.37886685    -0.72050
O1209       O  0.93247697  0.64047404  0.38387135    -0.72020
O1210       O  0.87810268  0.57889589  0.42157932    -0.72090
Ni1211     Ni  0.86845893  0.61641698  0.36252403     1.25410
Ni1212     Ni  0.90637480  0.60941847  0.40386241     1.25360
C1213       C  0.85175563  0.57158550  0.40839065     0.90180
C1214       C  0.92351015  0.65475111  0.35896590     0.90110
C1215       C  0.91484037  0.56888863  0.35187874     0.90140
C1216       C  0.85922145  0.65650289  0.41417495     0.90310
O1217       O  0.82348115  0.18593502  0.37855010    -0.72000
O1218       O  0.86471715  0.12942568  0.43548430    -0.72030
O1219       O  0.86785225  0.19223534  0.42418211    -0.72090
O1220       O  0.82087226  0.12290509  0.38955164    -0.72140
O1221       O  0.85902173  0.11592306  0.35348965    -0.72070
O1222       O  0.90712020  0.18322349  0.38968348    -0.72050
O1223       O  0.90244230  0.12008438  0.39943782    -0.72020
O1224       O  0.86293231  0.17874659  0.34380157    -0.72090
Ni1225     Ni  0.84278787  0.15795545  0.40820662     1.25410
Ni1226     Ni  0.88431143  0.14922812  0.37038422     1.25360
C1227       C  0.83652757  0.19164783  0.35207064     0.90180
C1228       C  0.88999603  0.11498787  0.42639236     0.90110
C1229       C  0.89531684  0.19882462  0.41268862     0.90140
C1230       C  0.83221254  0.10820733  0.36567333     0.90310
O1231       O  0.02974740  0.33641723  0.78561005    -0.78470
O1232       O  0.97148808  0.23739362  0.69952770    -0.63160
O1233       O  0.98336595  0.29117908  0.77008261    -1.09760
C1234       C  0.05392414  0.21218669  0.80575076     1.08420
O1235       O  0.96845682  0.19376125  0.72876414    -0.76360
O1236       O  0.97117953  0.20208689  0.79110242    -0.63950
Ni1237     Ni  0.98880335  0.33559296  0.76536773     1.34870
C1238       C  0.96994227  0.22123132  0.81396126     0.87160
O1239       O  0.94686798  0.29439678  0.71456556    -0.76900
O1240       O  0.94877292  0.33846167  0.74433892    -0.87180
C1241       C  0.96148035  0.20939332  0.70409629     0.86730
O1242       O  0.01076401  0.33566106  0.72620723    -0.65380
O1243       O  0.03580902  0.19314375  0.79075975    -0.84670
C1244       C  0.02120467  0.31373088  0.70854567     0.87560
C1245       C  0.93759822  0.32256971  0.72154545     1.09130
H1246       H  0.02906512  0.24020044  0.74014172     0.40930
O1247       O  0.00993239  0.23964596  0.75284124    -1.07330
O1248       O  0.98742618  0.24596179  0.81621526    -0.63980
Ni1249     Ni  0.01737307  0.26687811  0.78767242     1.26350
O1250       O  0.01203925  0.28517181  0.71033199    -0.64210
O1251       O  0.05165847  0.24208290  0.80383927    -0.76500
C1252       C  0.03835439  0.32326094  0.81096970     0.86940
O1253       O  0.02607588  0.29728870  0.81971194    -0.63680
Ni1254     Ni  0.00237168  0.19594396  0.75951317     1.27450
Ni1255     Ni  0.97783926  0.26586370  0.73370463     1.26060
H1256       H  0.96453638  0.28847729  0.78292666     0.41490
C1257       C  0.01651514  0.21143082  0.06580967     0.05550
C1258       C  0.02730929  0.19506206  0.03922775    -0.10600
C1259       C  0.05307526  0.20669953  0.02184720     0.03050
C1260       C  0.06795991  0.23497763  0.03109418    -0.09120
C1261       C  0.05698821  0.25139369  0.05773118     0.05550
C1262       C  0.03121536  0.23958953  0.07496447    -0.08540
H1263       H  0.01607103  0.17300044  0.03244014     0.11140
H1264       H  0.08832432  0.24378100  0.01805823     0.08670
H1265       H  0.02304726  0.25193360  0.09583221     0.08520
O1266       O  0.13287228  0.33271457  0.08209304    -0.72000
O1267       O  0.18550360  0.39552252  0.12053205    -0.72030
O1268       O  0.17911663  0.33130653  0.12634600    -0.72090
O1269       O  0.13798862  0.39627606  0.07645145    -0.72140
O1270       O  0.10154703  0.40391486  0.11391431    -0.72070
O1271       O  0.14227239  0.33849140  0.16353054    -0.72050
O1272       O  0.14899953  0.40292919  0.15799872    -0.72020
O1273       O  0.09580373  0.33989109  0.11917698    -0.72090
Ni1274     Ni  0.16022741  0.36387596  0.10010208     1.25410
Ni1275     Ni  0.12091851  0.37167222  0.14004983     1.25360
C1276       C  0.10592069  0.32587480  0.09436720     0.90180
C1277       C  0.17620982  0.40941969  0.14563768     0.90110
C1278       C  0.16676063  0.32353575  0.15279075     0.90140
C1279       C  0.11243545  0.41003766  0.08647802     0.90310
C1280       C  0.05189501  0.00815439  0.20414106     0.05550
C1281       C  0.02459814  0.01983517  0.18897480    -0.10600
C1282       C  0.00951861  0.04727030  0.20007408     0.03050
C1283       C  0.02147428  0.06296030  0.22633445    -0.09120
C1284       C  0.04874137  0.05144834  0.24144011     0.05550
C1285       C  0.06404449  0.02394458  0.23045202    -0.08540
H1286       H  0.01556844  0.00804014  0.16822437     0.11140
H1287       H  0.01002404  0.08457797  0.23454121     0.08670
H1288       H  0.08552196  0.01527731  0.24187565     0.08520
C1289       C  0.23764509  0.19994198  0.20539788     0.05550
C1290       C  0.22743745  0.22778597  0.19003068    -0.10600
C1291       C  0.20042498  0.24481399  0.20083160     0.03050
C1292       C  0.18366498  0.23353337  0.22727995    -0.09120
C1293       C  0.19374927  0.20569725  0.24277417     0.05550
C1294       C  0.22069596  0.18916034  0.23167033    -0.08540
H1295       H  0.24034600  0.23605373  0.16960184     0.11140
H1296       H  0.16272437  0.24624541  0.23564256     0.08670
H1297       H  0.22835315  0.16762323  0.24337449     0.08520
O1298       O  0.07168038  0.13154447  0.31871820    -0.72000
O1299       O  0.10655523  0.18076672  0.38612350    -0.72030
O1300       O  0.11587586  0.17801965  0.32286298    -0.72090
O1301       O  0.06132829  0.13475946  0.38091935    -0.72140
O1302       O  0.09941629  0.09865392  0.38985190    -0.72070
O1303       O  0.15350348  0.14090616  0.32925579    -0.72050
O1304       O  0.14484711  0.14431077  0.39244960    -0.72020
O1305       O  0.10904683  0.09448689  0.32715519    -0.72090
Ni1306     Ni  0.08757860  0.15769223  0.35200785     1.25410
Ni1307     Ni  0.12811252  0.11836005  0.36001144     1.25360
C1308       C  0.08465614  0.10474125  0.31228063     0.90180
C1309       C  0.13159739  0.17050061  0.40027997     0.90110
C1310       C  0.14318231  0.16618012  0.31576466     0.90140
C1311       C  0.07090047  0.10929456  0.39426673     0.90310
C1312       C  0.19887708  0.05285537  0.02179820     0.05550
C1313       C  0.18276320  0.02512047  0.03064163    -0.10600
C1314       C  0.19314485  0.00761423  0.05673319     0.03050
C1315       C  0.21973445  0.01802185  0.07390742    -0.09120
C1316       C  0.23578123  0.04573688  0.06508154     0.05550
C1317       C  0.22532857  0.06303816  0.03904346    -0.08540
H1318       H  0.16202620  0.01742143  0.01751545     0.11140
H1319       H  0.22765716  0.00483478  0.09428878     0.08670
H1320       H  0.23755051  0.08462160  0.03242112     0.08520
O1321       O  0.32466460  0.10598586  0.10479741    -0.72000
O1322       O  0.39142072  0.14305048  0.15374963    -0.72030
O1323       O  0.38878752  0.09694307  0.11019867    -0.72090
O1324       O  0.32710956  0.15306103  0.14791378    -0.72140
O1325       O  0.31822037  0.11795953  0.18592509    -0.72070
O1326       O  0.38036731  0.06144278  0.14791461    -0.72050
O1327       O  0.38264089  0.10832322  0.19213105    -0.72020
O1328       O  0.31626245  0.07071227  0.14282941    -0.72090
Ni1329     Ni  0.35831725  0.12605623  0.12791332     1.25410
Ni1330     Ni  0.34913429  0.08836810  0.16862879     1.25360
C1331       C  0.30954902  0.08220335  0.11590450     0.90180
C1332       C  0.39833472  0.13154003  0.18072772     0.90110
C1333       C  0.39447898  0.06983233  0.12248894     0.90140
C1334       C  0.31204568  0.14457630  0.17262662     0.90310
O1335       O  0.08541254  0.13048763  0.93961698    -0.72000
O1336       O  0.13546383  0.09013368  0.87455220    -0.72030
O1337       O  0.13512844  0.08908320  0.93846733    -0.72090
O1338       O  0.08519842  0.12997507  0.87597839    -0.72140
O1339       O  0.11844367  0.17115260  0.87552533    -0.72070
O1340       O  0.16890664  0.12984234  0.93943585    -0.72050
O1341       O  0.16880795  0.13121366  0.87559394    -0.72020
O1342       O  0.11920666  0.17124610  0.93921591    -0.72090
Ni1343     Ni  0.10912493  0.10843984  0.90721116     1.25410
Ni1344     Ni  0.14508886  0.15230284  0.90749975     1.25360
C1345       C  0.09435400  0.15761556  0.94994415     0.90180
C1346       C  0.15998328  0.10483810  0.86387645     0.90110
C1347       C  0.15984066  0.10267897  0.94951302     0.90140
C1348       C  0.09365970  0.15675818  0.86503133     0.90310
O1349       O  0.11766906  0.92328347  0.08546983    -0.72000
O1350       O  0.07363463  0.86005490  0.13453182    -0.72030
O1351       O  0.07783477  0.92410201  0.13551198    -0.72090
O1352       O  0.11381072  0.85911000  0.08340350    -0.72140
O1353       O  0.15518973  0.85462468  0.11607194    -0.72070
O1354       O  0.12047833  0.92154982  0.16689572    -0.72050
O1355       O  0.11542944  0.85812852  0.16692716    -0.72020
O1356       O  0.16005349  0.91873896  0.11691496    -0.72090
Ni1357     Ni  0.09420846  0.89157226  0.10851946     1.25410
Ni1358     Ni  0.13928180  0.88792906  0.14274890     1.25360
C1359       C  0.14589142  0.93171060  0.09364335     0.90180
C1360       C  0.08687933  0.85010840  0.15986093     0.90110
C1361       C  0.09344187  0.93368305  0.15943857     0.90140
C1362       C  0.14084767  0.84679787  0.09069121     0.90310
O1363       O  0.93268229  0.14538550  0.09508826    -0.72000
O1364       O  0.86525477  0.09554595  0.12804336    -0.72030
O1365       O  0.86822753  0.14902403  0.09474705    -0.72090
O1366       O  0.92959314  0.09182680  0.12931663    -0.72140
O1367       O  0.92896097  0.12000842  0.17369032    -0.72070
O1368       O  0.86988768  0.17895379  0.13793907    -0.72050
O1369       O  0.86410191  0.12505944  0.17150838    -0.72020
O1370       O  0.93431517  0.17368809  0.13934317    -0.72090
Ni1371     Ni  0.89896702  0.11945853  0.11022993     1.25410
Ni1372     Ni  0.89940823  0.15043621  0.15729426     1.25360
C1373       C  0.94456302  0.16756336  0.11167148     0.90180
C1374       C  0.85305492  0.10243297  0.15464675     0.90110
C1375       C  0.85876073  0.17305558  0.11073242     0.90140
C1376       C  0.93911259  0.09658898  0.15736357     0.90310
C1377       C  0.28422984  0.06826390  0.09796561    -0.10850
C1378       C  0.26239936  0.05722892  0.08315359    -0.12410
C1379       C  0.16180021  0.95715819  0.07740598    -0.10850
C1380       C  0.17588954  0.97973585  0.06678903    -0.12410
C1381       C  0.17685136  0.08687497  0.97427271    -0.10850
C1382       C  0.18771893  0.07153655  0.99566772    -0.12410
C1383       C  0.17627500  0.19324500  0.26960140    -0.10850
C1384       C  0.16194862  0.18121093  0.29133147    -0.12410
C1385       C  0.26499263  0.18167831  0.19406835    -0.10850
C1386       C  0.28698973  0.16507084  0.18495607    -0.12410
C1387       C  0.07179289  0.08553082  0.28784924    -0.10850
C1388       C  0.06162608  0.06915013  0.26711891    -0.12410
C1389       C  0.98311446  0.06093473  0.18350776    -0.10850
C1390       C  0.96225739  0.07573863  0.17079923    -0.12410
C1391       C  0.08036103  0.95892477  0.17794568    -0.10850
C1392       C  0.06811100  0.98098062  0.19135126    -0.12410
C1393       C  0.18956050  0.27340369  0.18442217    -0.10850
C1394       C  0.17989603  0.29674499  0.17033712    -0.12410
C1395       C  0.07321979  0.27919426  0.06889388    -0.10850
C1396       C  0.08723870  0.30129615  0.08023966    -0.12410
C1397       C  0.07684844  0.17342423  0.97445909    -0.10850
C1398       C  0.06520541  0.18861915  0.99563574    -0.12410
C1399       C  0.96993084  0.18568899  0.09842652    -0.10850
C1400       C  0.99111488  0.19851719  0.08432971    -0.12410
C1401       C  0.07377374  0.17014096  0.83990120    -0.14010
C1402       C  0.07767777  0.19914040  0.82784708    -0.29180
H1403       H  0.05392546  0.15568227  0.83196342     0.15010
H1404       H  0.09647963  0.21443479  0.83660629     0.15590
C1405       C  0.91489759  0.33984607  0.70127710    -0.14010
C1406       C  0.90112263  0.32753029  0.67579109    -0.29180
H1407       H  0.91185364  0.36505336  0.70585208     0.15010
H1408       H  0.90231051  0.30223656  0.67117985     0.15590
C1409       C  0.92009479  0.32327583  0.52291179    -0.10850
C1410       C  0.90466307  0.33454751  0.54412064    -0.12410
C1411       C  0.91329898  0.22428603  0.42595892    -0.10850
C1412       C  0.92728902  0.24591102  0.43810271    -0.12410
C1413       C  0.01168929  0.32650433  0.44898428    -0.10850
C1414       C  0.03525221  0.33820641  0.43734719    -0.12410
C1415       C  0.94002874  0.51987012  0.32131158    -0.10850
C1416       C  0.92900544  0.54276880  0.33476685    -0.12410
C1417       C  0.92926247  0.41946397  0.21863693    -0.10850
C1418       C  0.93959315  0.43471349  0.24036854    -0.12410
C1419       C  0.01950345  0.43337239  0.32421100    -0.10850
C1420       C  0.04091470  0.41988591  0.33771702    -0.12410
C1421       C  0.80946413  0.44684182  0.51902871    -0.10850
C1422       C  0.82072417  0.43424887  0.54201788    -0.12410
C1423       C  0.83231380  0.54771744  0.42266463    -0.10850
C1424       C  0.81774436  0.52665670  0.43517473    -0.12410
C1425       C  0.71382524  0.43303540  0.41385483    -0.10850
C1426       C  0.73471882  0.44548994  0.42892623    -0.12410
C1427       C  0.82156418  0.21363987  0.33152303    -0.10850
C1428       C  0.80982874  0.23400172  0.31567900    -0.12410
C1429       C  0.73400326  0.32177312  0.31074269    -0.10850
C1430       C  0.71314674  0.33625616  0.32378890    -0.12410
C1431       C  0.82066837  0.31392356  0.23398021    -0.10850
C1432       C  0.83687421  0.32550555  0.21390767    -0.12410
C1433       C  0.04570722  0.32242901  0.68554182    -0.14010
C1434       C  0.04072430  0.34743498  0.66695414    -0.29180
H1435       H  0.06875581  0.31042795  0.68599361     0.15010
H1436       H  0.01690487  0.35780589  0.66542742     0.15590
C1437       C  0.97614039  0.58307662  0.69026930    -0.10850
C1438       C  0.95482476  0.59760239  0.67770114    -0.12410
C1439       C  0.06439861  0.47228111  0.66618194    -0.10850
C1440       C  0.05219443  0.49442978  0.67935218    -0.12410
C1441       C  0.08352555  0.58463399  0.78206927    -0.10850
C1442       C  0.06785909  0.57269276  0.76172004    -0.12410
C1443       C  0.26775503  0.56155964  0.57830651    -0.10850
C1444       C  0.29025642  0.57374837  0.59113138    -0.12410
C1445       C  0.18252494  0.48208466  0.57457220    -0.10850
C1446       C  0.16783762  0.46056069  0.58616946    -0.12410
C1447       C  0.26967564  0.68982178  0.68700834    -0.10850
C1448       C  0.29030213  0.67531297  0.67348301    -0.12410
C1449       C  0.18317298  0.69898086  0.76480712    -0.10850
C1450       C  0.16710495  0.68699158  0.78477576    -0.12410
C1451       C  0.19874610  0.78186819  0.68794909    -0.10850
C1452       C  0.18636189  0.80342157  0.67439550    -0.12410
C1453       C  0.16826125  0.58210413  0.47695889    -0.10850
C1454       C  0.18272176  0.56939626  0.49809291    -0.12410
C1455       C  0.06320613  0.69073480  0.49507118    -0.10850
C1456       C  0.07302274  0.67422287  0.47408641    -0.12410
C1457       C  0.98713007  0.70780568  0.58065385    -0.10850
C1458       C  0.96400776  0.69526760  0.59212249    -0.12410
C1459       C  0.08043724  0.77901559  0.56842248    -0.10850
C1460       C  0.09635686  0.80047121  0.57866781    -0.12410
C1461       C  0.92503702  0.16708944  0.68640684    -0.14010
C1462       C  0.93913520  0.19525868  0.68112483    -0.29180
H1463       H  0.93156965  0.15338077  0.70698435     0.15010
H1464       H  0.93252543  0.20915002  0.66069723     0.15590
C1465       C  0.69244973  0.27292972  0.68513627    -0.10850
C1466       C  0.68095356  0.29266795  0.66840140    -0.12410
C1467       C  0.67754874  0.19767917  0.77142960    -0.10850
C1468       C  0.66302255  0.18365379  0.79129305    -0.12410
C1469       C  0.77145499  0.19116298  0.70344975    -0.10850
C1470       C  0.79211849  0.17747909  0.68943315    -0.12410
C1471       C  0.47989213  0.19736450  0.56086864    -0.10850
C1472       C  0.45772306  0.18794740  0.57636824    -0.12410
C1473       C  0.57173952  0.18183157  0.45199949    -0.10850
C1474       C  0.56017514  0.19457647  0.47487857    -0.12410
C1475       C  0.56992886  0.27012126  0.56314027    -0.10850
C1476       C  0.58328312  0.29045434  0.57794890    -0.12410
C1477       C  0.67203536  0.09938692  0.45464263    -0.10850
C1478       C  0.68544562  0.08832212  0.47727252    -0.12410
C1479       C  0.67834858  0.00306721  0.55566047    -0.10850
C1480       C  0.66536313  0.98075638  0.56794548    -0.12410
C1481       C  0.78117580  0.09744984  0.58336166    -0.10850
C1482       C  0.75987981  0.08622387  0.56774030    -0.12410
C1483       C  0.48081701  0.08099935  0.67957406    -0.10850
C1484       C  0.45904068  0.09450542  0.66662275    -0.12410
C1485       C  0.55601899  0.08027619  0.76863028    -0.10850
C1486       C  0.56946808  0.09101399  0.79115423    -0.12410
C1487       C  0.57024432  0.00487247  0.68302094    -0.10850
C1488       C  0.58519353  0.98404514  0.67045124    -0.12410
C1489       C  0.04708164  0.09041794  0.41168646    -0.14010
C1490       C  0.05062482  0.07971216  0.44119619    -0.29180
H1491       H  0.02502976  0.08525319  0.39927713     0.15010
H1492       H  0.07105911  0.08685487  0.45514317     0.15590
C1493       C  0.91531135  0.08511501  0.58185816    -0.14010
C1494       C  0.93885910  0.09780396  0.56463854    -0.29180
H1495       H  0.91521764  0.05972685  0.58632655     0.15010
H1496       H  0.93948123  0.12287631  0.55901906     0.15590
C1497       C  0.09781263  0.93469881  0.57405100    -0.14010
C1498       C  0.07819422  0.95536216  0.58808582    -0.29180
H1499       H  0.10071045  0.93443029  0.54874102     0.15010
H1500       H  0.07689679  0.95622096  0.61353867     0.15590
C1501       C  0.91839196  0.06588601  0.43491437    -0.14010
C1502       C  0.90542963  0.09217370  0.44713832    -0.29180
H1503       H  0.91412874  0.06002456  0.41043968     0.15010
H1504       H  0.90783754  0.09783839  0.47186321     0.15590
C1505       C  0.79108846  0.43433383  0.69221355    -0.14010
C1506       C  0.81648784  0.44016144  0.67379244    -0.29180
H1507       H  0.78258148  0.41030010  0.69545260     0.15010
H1508       H  0.82548406  0.46425444  0.67255956     0.15590
C1509       C  0.66889931  0.44448730  0.68941228    -0.14010
C1510       C  0.67864648  0.42777873  0.66439235    -0.29180
H1511       H  0.64753935  0.43783700  0.70228126     0.15010
H1512       H  0.70084335  0.43404995  0.65267568     0.15590
C1513       C  0.80472587  0.59462600  0.68195660    -0.14010
C1514       C  0.82051132  0.58834977  0.65520085    -0.29180
H1515       H  0.81058478  0.61555315  0.69560372     0.15010
H1516       H  0.81565379  0.56665892  0.64234825     0.15590
C1517       C  0.67688538  0.58138149  0.82187100    -0.14010
C1518       C  0.70523596  0.58840044  0.80891440    -0.29180
H1519       H  0.66834433  0.55712123  0.82049576     0.15010
H1520       H  0.71380706  0.61263024  0.80837958     0.15590
C1521       C  0.46341247  0.58353463  0.17390023    -0.10850
C1522       C  0.48518077  0.56852383  0.18499872    -0.12410
C1523       C  0.56639346  0.48410979  0.17387204    -0.10850
C1524       C  0.57736190  0.46312468  0.15756956    -0.12410
C1525       C  0.46513400  0.66772392  0.07393070    -0.10850
C1526       C  0.48647887  0.68051078  0.05964978    -0.12410
C1527       C  0.56624749  0.76597889  0.06002234    -0.10850
C1528       C  0.57923426  0.78727015  0.07374988    -0.12410
C1529       C  0.58064774  0.67825129  0.95205468    -0.10850
C1530       C  0.56657305  0.68882887  0.97446157    -0.12410
C1531       C  0.68163259  0.48649858  0.05149911    -0.10850
C1532       C  0.66762250  0.46431977  0.06244011    -0.12410
C1533       C  0.76015984  0.57239760  0.05861598    -0.10850
C1534       C  0.78125107  0.58484627  0.07337151    -0.12410
C1535       C  0.66897916  0.58251478  0.95021568    -0.10850
C1536       C  0.68183177  0.56988436  0.97217819    -0.12410
C1537       C  0.56793675  0.55815006  0.26498624    -0.10850
C1538       C  0.57926699  0.57054701  0.28796371    -0.12410
C1539       C  0.68056825  0.67795572  0.27196673    -0.10850
C1540       C  0.66957351  0.66327664  0.29357398    -0.12410
C1541       C  0.75941589  0.68109816  0.18749867    -0.10850
C1542       C  0.78138643  0.66800949  0.17443843    -0.12410
C1543       C  0.67204794  0.76027874  0.19043031    -0.10850
C1544       C  0.65853860  0.78204956  0.17759131    -0.12410
C1545       C  0.08175237  0.36198592  0.81749157    -0.14010
C1546       C  0.06468950  0.33750721  0.82902819    -0.29180
H1547       H  0.07586568  0.37198743  0.79475875     0.15010
H1548       H  0.07070031  0.32723740  0.85160878     0.15590
C1549       C  0.67089745  0.44380828  0.84732121    -0.14010
C1550       C  0.68793099  0.43407814  0.82223234    -0.29180
H1551       H  0.67627715  0.46630860  0.85849078     0.15010
H1552       H  0.68191162  0.41217444  0.81027177     0.15590
C1553       C  0.32638404  0.52947406  0.94975931    -0.10850
C1554       C  0.33736141  0.55235370  0.93674883    -0.12410
C1555       C  0.24322576  0.45064573  0.93358712    -0.10850
C1556       C  0.22177946  0.44145529  0.91707038    -0.12410
C1557       C  0.31825477  0.43801996  0.02254297    -0.10850
C1558       C  0.32890856  0.42224034  0.04389203    -0.12410
C1559       C  0.51204419  0.44899488  0.82126137    -0.10850
C1560       C  0.53357897  0.43521172  0.83425345    -0.12410
C1561       C  0.42895588  0.53253823  0.82015288    -0.10850
C1562       C  0.41601134  0.55439266  0.83355158    -0.12410
C1563       C  0.43312333  0.45096782  0.73690161    -0.10850
C1564       C  0.42281101  0.43644770  0.71481514    -0.12410
C1565       C  0.53331668  0.33783394  0.92224949    -0.10850
C1566       C  0.51229344  0.32175670  0.93300026    -0.12410
C1567       C  0.43280018  0.31509965  0.01636568    -0.10850
C1568       C  0.42027386  0.32763300  0.03859399    -0.12410
C1569       C  0.43208378  0.23598708  0.93141625    -0.10850
C1570       C  0.41749653  0.21442633  0.91959457    -0.12410
C1571       C  0.32207048  0.21872589  0.83176381    -0.10850
C1572       C  0.31289678  0.24149355  0.81722778    -0.12410
C1573       C  0.32744024  0.32256474  0.73514089    -0.10850
C1574       C  0.34189882  0.33432167  0.71351794    -0.12410
C1575       C  0.21918862  0.34798561  0.82601269    -0.10850
C1576       C  0.24059698  0.33322725  0.81361188    -0.12410
C1577       C  0.83426100  0.19378735  0.09739168    -0.14010
C1578       C  0.81013739  0.18060762  0.08165786    -0.29180
H1579       H  0.83714632  0.21931835  0.09862802     0.15010
H1580       H  0.80763704  0.15494562  0.08181869     0.15590
C1581       C  0.68087793  0.16793645  0.92149926    -0.14010
C1582       C  0.67302317  0.19368459  0.93850840    -0.29180
H1583       H  0.70360839  0.15594427  0.92537240     0.15010
H1584       H  0.65077801  0.20638191  0.93424794     0.15590
C1585       C  0.68253404  0.31438925  0.05398389    -0.14010
C1586       C  0.65721039  0.33186847  0.04481385    -0.29180
H1587       H  0.69003608  0.31534345  0.07832701     0.15010
H1588       H  0.65059922  0.33235548  0.02018735     0.15590
C1589       C  0.68675418  0.32705903  0.92787754    -0.14010
C1590       C  0.66939983  0.35227205  0.93673466    -0.29180
H1591       H  0.68133738  0.31472021  0.90617726     0.15010
H1592       H  0.67408169  0.36353393  0.95918760     0.15590
C1593       C  0.85553644  0.31177808  0.08206723    -0.14010
C1594       C  0.83966918  0.32654346  0.05885543    -0.29180
H1595       H  0.85615888  0.28608802  0.08347770     0.15010
H1596       H  0.83996474  0.35229923  0.05801680     0.15590
C1597       C  0.80733100  0.09029594  0.18977914    -0.14010
C1598       C  0.82597836  0.08323561  0.16507282    -0.29180
H1599       H  0.81178413  0.11134451  0.20374802     0.15010
H1600       H  0.82114777  0.06215767  0.15124042     0.15590
C1601       C  0.68909886  0.08155702  0.30767463    -0.14010
C1602       C  0.66522869  0.07347938  0.32734453    -0.29180
H1603       H  0.69280238  0.10616146  0.30128750     0.15010
H1604       H  0.66105627  0.04849314  0.33185617     0.15590
C1605       C  0.65873813  0.91794369  0.18323096    -0.14010
C1606       C  0.67192178  0.94365892  0.17038136    -0.29180
H1607       H  0.65810831  0.91485082  0.20849061     0.15010
H1608       H  0.67105178  0.94665146  0.14507482     0.15590
C1609       C  0.81365929  0.08234823  0.35183209    -0.14010
C1610       C  0.81973902  0.07138689  0.32285254    -0.29180
H1611       H  0.79291951  0.07393592  0.36468962     0.15010
H1612       H  0.83887569  0.08153435  0.30890993     0.15590
C1613       C  0.07755738  0.93762857  0.42358375    -0.14010
C1614       C  0.06095769  0.92957723  0.44926481    -0.29180
H1615       H  0.07337529  0.96028606  0.41216419     0.15010
H1616       H  0.06530823  0.90723967  0.46118660     0.15590
C1617       C  0.44180777  0.81868646  0.51603979    -0.10850
C1618       C  0.43248040  0.83387602  0.53834559    -0.12410
C1619       C  0.32159345  0.93584098  0.51999638    -0.10850
C1620       C  0.33761288  0.92468358  0.54071564    -0.12410
C1621       C  0.31713807  0.01748992  0.43870537    -0.10850
C1622       C  0.33129760  0.03925227  0.42687424    -0.12410
C1623       C  0.21261103  0.92098829  0.42972024    -0.10850
C1624       C  0.23498132  0.93391571  0.44203850    -0.12410
C1625       C  0.67441789  0.89908894  0.30604760    -0.14010
C1626       C  0.69236043  0.92194248  0.31869268    -0.29180
H1627       H  0.67469731  0.89475319  0.28095287     0.15010
H1628       H  0.69134643  0.92572274  0.34389527     0.15590
C1629       C  0.51795233  0.80902445  0.42816309    -0.10850
C1630       C  0.54027339  0.81914184  0.41332833    -0.12410
C1631       C  0.54224955  0.91310366  0.32368704    -0.10850
C1632       C  0.52105568  0.92997285  0.31415551    -0.12410
C1633       C  0.43157329  0.94369457  0.24153582    -0.10850
C1634       C  0.41477688  0.93280792  0.22146733    -0.12410
C1635       C  0.44498102  0.01893769  0.32743905    -0.10850
C1636       C  0.43204618  0.04020880  0.34148986    -0.12410
C1637       C  0.41263890  0.71323708  0.42530606    -0.10850
C1638       C  0.42819180  0.73452952  0.43640146    -0.12410
C1639       C  0.20261166  0.82616993  0.33801640    -0.10850
C1640       C  0.22286857  0.81213263  0.32384534    -0.12410
C1641       C  0.31994418  0.71329120  0.33256896    -0.10850
C1642       C  0.30849600  0.73450349  0.31762054    -0.12410
C1643       C  0.30577732  0.82516756  0.24545073    -0.10850
C1644       C  0.31725407  0.84209290  0.22597737    -0.12410
C1645       C  0.43535275  0.05580629  0.08227087    -0.14010
C1646       C  0.41583810  0.04703278  0.10590864    -0.29180
H1647       H  0.43816661  0.08075857  0.07681943     0.15010
H1648       H  0.41277845  0.02197454  0.11086057     0.15590
C1649       C  0.58977727  0.07542412  0.92540843    -0.14010
C1650       C  0.56318239  0.08289683  0.94135250    -0.29180
H1651       H  0.60251433  0.05350615  0.93061042     0.15010
H1652       H  0.54889101  0.10342894  0.93482799     0.15590
C1653       C  0.56002187  0.94230873  0.08370109    -0.14010
C1654       C  0.58491222  0.92367641  0.07583087    -0.29180
H1655       H  0.54697531  0.93806457  0.10531170     0.15010
H1656       H  0.59782825  0.92820493  0.05418758     0.15590
C1657       C  0.39594101  0.94112333  0.08868153    -0.14010
C1658       C  0.42226819  0.93066996  0.07380358    -0.29180
H1659       H  0.38469524  0.96335575  0.08180070     0.15010
H1660       H  0.43514686  0.90980142  0.08188618     0.15590
C1661       C  0.39826860  0.08112827  0.93622987    -0.14010
C1662       C  0.42402685  0.06377263  0.92761734    -0.29180
H1663       H  0.38713146  0.07732208  0.95893015     0.15010
H1664       H  0.43565996  0.06780400  0.90521141     0.15590
C1665       C  0.04329147  0.81360017  0.17762087    -0.14010
C1666       C  0.06863042  0.83212477  0.18358171    -0.29180
H1667       H  0.03707441  0.80758291  0.15364961     0.15010
H1668       H  0.07558553  0.83593576  0.20783162     0.15590
C1669       C  0.93662001  0.69722093  0.32129119    -0.14010
C1670       C  0.94535002  0.67822291  0.34497867    -0.29180
H1671       H  0.91198648  0.69700784  0.31323398     0.15010
H1672       H  0.97034964  0.67721896  0.35195327     0.15590
C1673       C  0.91974776  0.66250540  0.17623350    -0.14010
C1674       C  0.93608358  0.68896586  0.16917221    -0.29180
H1675       H  0.92543334  0.64953053  0.19751752     0.15010
H1676       H  0.93003275  0.70269812  0.14848118     0.15590
C1677       C  0.05537279  0.81708891  0.33691644    -0.14010
C1678       C  0.07079395  0.84430148  0.33101533    -0.29180
H1679       H  0.06051198  0.80350986  0.35793719     0.15010
H1680       H  0.06553958  0.85739574  0.30969833     0.15590
C1681       C  0.06646797  0.68130695  0.32406510    -0.14010
C1682       C  0.05884745  0.65498256  0.34008343    -0.29180
H1683       H  0.08759010  0.69460741  0.33066996     0.15010
H1684       H  0.03690549  0.64251425  0.33452186     0.15590
C1685       C  0.81641643  0.69683281  0.42370716    -0.14010
C1686       C  0.84369415  0.68197224  0.43244486    -0.29180
H1687       H  0.80418100  0.68994032  0.40234571     0.15010
H1688       H  0.85506478  0.68826146  0.45445845     0.15590
C1689       C  0.68972678  0.80929798  0.42754251    -0.14010
C1690       C  0.67363203  0.79986474  0.40194097    -0.29180
H1691       H  0.68843408  0.83394910  0.43481320     0.15010
H1692       H  0.67351040  0.77492581  0.39554912     0.15590
C1693       C  0.68461792  0.82251098  0.58188999    -0.14010
C1694       C  0.66165315  0.84262408  0.57238896    -0.29180
H1695       H  0.69699608  0.82618005  0.60394857     0.15010
H1696       H  0.64960042  0.83863608  0.55018221     0.15590
C1697       C  0.66597934  0.68264391  0.44093252    -0.14010
C1698       C  0.67746318  0.65865020  0.42356072    -0.29180
H1699       H  0.64046353  0.68768494  0.43994188     0.15010
H1700       H  0.70262074  0.65228019  0.42506310     0.15590
C1701       C  0.83205150  0.68791746  0.56572540    -0.14010
C1702       C  0.80932444  0.70902334  0.57397231    -0.29180
H1703       H  0.83738767  0.68421150  0.54103064     0.15010
H1704       H  0.80208453  0.71178847  0.59828023     0.15590
C1705       C  0.17318419  0.06502295  0.82266413    -0.14010
C1706       C  0.17882019  0.09253559  0.83732633    -0.29180
H1707       H  0.15442110  0.04939418  0.83089320     0.15010
H1708       H  0.19907393  0.10677873  0.82993889     0.15590
C1709       C  0.21466590  0.94693461  0.67266736    -0.14010
C1710       C  0.18815831  0.93058084  0.67935659    -0.29180
H1711       H  0.22244393  0.95030948  0.64862125     0.15010
H1712       H  0.18032710  0.92932175  0.70365551     0.15590
C1713       C  0.31184168  0.08046247  0.67757570    -0.14010
C1714       C  0.32580728  0.10796476  0.68577487    -0.29180
H1715       H  0.31797609  0.06899320  0.65554474     0.15010
H1716       H  0.32050904  0.11884883  0.70829642     0.15590
C1717       C  0.35778138  0.94860370  0.66908666    -0.14010
C1718       C  0.34433004  0.93575714  0.69454987    -0.29180
H1719       H  0.35503192  0.97365929  0.66392140     0.15010
H1720       H  0.34850139  0.91071809  0.69919144     0.15590
C1721       C  0.29658466  0.08867295  0.84586759    -0.14010
C1722       C  0.30390838  0.06278277  0.82891454    -0.29180
H1723       H  0.27185781  0.09680300  0.84675319     0.15010
H1724       H  0.32814215  0.05340380  0.82837718     0.15590
C1725       C  0.06932674  0.44996706  0.07273508    -0.14010
C1726       C  0.09412488  0.43079808  0.06449974    -0.29180
H1727       H  0.06452179  0.45458871  0.09733795     0.15010
H1728       H  0.09943777  0.42761437  0.03975612     0.15590
C1729       C  0.07337744  0.59161292  0.94063709    -0.14010
C1730       C  0.08220167  0.58046111  0.91264887    -0.29180
H1731       H  0.07772880  0.61630460  0.94649944     0.15010
H1732       H  0.07947535  0.55556670  0.90678073     0.15590
C1733       C  0.94071698  0.56411545  0.08440211    -0.14010
C1734       C  0.91886110  0.58507227  0.07396334    -0.29180
H1735       H  0.93853658  0.55341526  0.10743499     0.15010
H1736       H  0.92153708  0.59542867  0.05080347     0.15590
C1737       C  0.05722030  0.44577853  0.91249622    -0.14010
C1738       C  0.08495649  0.45885558  0.90388978    -0.29180
H1739       H  0.05334457  0.42089934  0.90709413     0.15010
H1740       H  0.09018594  0.48337644  0.90960668     0.15590
C1741       C  0.94066578  0.43121479  0.07232421    -0.14010
C1742       C  0.94890634  0.40378466  0.08580005    -0.29180
H1743       H  0.91932946  0.44396484  0.07986530     0.15010
H1744       H  0.97114384  0.39189393  0.07951204     0.15590
C1745       C  0.18332601  0.80889092  0.07479915    -0.14010
C1746       C  0.15696134  0.82585756  0.06774769    -0.29180
H1747       H  0.19007984  0.80551817  0.09914602     0.15010
H1748       H  0.14953494  0.82801111  0.04343914     0.15590
C1749       C  0.17390369  0.67719344  0.94165123    -0.14010
C1750       C  0.16021933  0.69002523  0.91643583    -0.29180
H1751       H  0.17387492  0.65156961  0.94441622     0.15010
H1752       H  0.15885021  0.71557969  0.91361840     0.15590
C1753       C  0.29894172  0.70079438  0.93143947    -0.14010
C1754       C  0.32491452  0.68339641  0.93911429    -0.29180
H1755       H  0.29282289  0.70470494  0.90702076     0.15010
H1756       H  0.33164078  0.68145464  0.96364446     0.15590
C1757       C  0.32893811  0.67340914  0.07641473    -0.14010
C1758       C  0.30954669  0.69711981  0.08564602    -0.29180
H1759       H  0.32536352  0.66234727  0.05367387     0.15010
H1760       H  0.31269750  0.70867125  0.10818308     0.15590
C1761       C  0.30053436  0.85516089  0.09442173    -0.14010
C1762       C  0.30971312  0.82930861  0.07849012    -0.29180
H1763       H  0.27798207  0.86690217  0.08910019     0.15010
H1764       H  0.33179272  0.81704735  0.08450715     0.15590
C1765       C  0.42462277  0.68269501  0.66744802    -0.14010
C1766       C  0.43933367  0.67878889  0.69514751    -0.29180
H1767       H  0.43017642  0.70322010  0.65312301     0.15010
H1768       H  0.43398321  0.65848769  0.70982839     0.15590
C1769       C  0.44951370  0.83612712  0.69272623    -0.14010
C1770       C  0.45825079  0.85489498  0.66877852    -0.29180
H1771       H  0.42439684  0.83303551  0.69839617     0.15010
H1772       H  0.48351994  0.85753816  0.66336281     0.15590
C1773       C  0.43133860  0.70837769  0.83819657    -0.14010
C1774       C  0.40986305  0.68772588  0.82713402    -0.29180
H1775       H  0.43515337  0.70985784  0.86336245     0.15010
H1776       H  0.40451338  0.68671860  0.80225279     0.15590
C1777       C  0.58382994  0.69306958  0.82412964    -0.14010
C1778       C  0.55683971  0.68700830  0.80833582    -0.29180
H1779       H  0.59189086  0.71744158  0.82614523     0.15010
H1780       H  0.54907895  0.66279028  0.80456274     0.15590
C1781       C  0.57298930  0.82420507  0.66884696    -0.14010
C1782       C  0.58704986  0.85041807  0.67981625    -0.29180
H1783       H  0.57313888  0.81970697  0.64374468     0.15010
H1784       H  0.58851518  0.85471347  0.70487534     0.15590
C1785       C  0.17354169  0.18115759  0.43935902    -0.14010
C1786       C  0.14550694  0.18923282  0.42589803    -0.29180
H1787       H  0.18675454  0.16045454  0.43128186     0.15010
H1788       H  0.13303855  0.21073772  0.43302212     0.15590
C1789       C  0.30395358  0.20118481  0.57351392    -0.14010
C1790       C  0.32398323  0.20907842  0.59664504    -0.29180
H1791       H  0.30310898  0.17673771  0.56557258     0.15010
H1792       H  0.32603139  0.23382219  0.60347941     0.15590
C1793       C  0.31923469  0.33239383  0.56858245    -0.14010
C1794       C  0.34911781  0.32813513  0.57952257    -0.29180
H1795       H  0.30450722  0.35165924  0.57759016     0.15010
H1796       H  0.36334260  0.30804559  0.57154235     0.15590
C1797       C  0.18793681  0.30563528  0.43547088    -0.14010
C1798       C  0.17078111  0.33143216  0.44359009    -0.29180
H1799       H  0.18991331  0.29850448  0.41107261     0.15010
H1800       H  0.17048232  0.33917710  0.46790094     0.15590
C1801       C  0.31308395  0.19300271  0.42416832    -0.14010
C1802       C  0.33846555  0.17607195  0.43422255    -0.29180
H1803       H  0.30110212  0.18706732  0.40239368     0.15010
H1804       H  0.34907906  0.18154444  0.45682889     0.15590
C1805       C  0.14940834  0.32555899  0.58264275    -0.14010
C1806       C  0.17799322  0.31251285  0.58991525    -0.29180
H1807       H  0.13679233  0.31776449  0.56178442     0.15010
H1808       H  0.19172327  0.32117070  0.60970965     0.15590
C1809       C  0.19845960  0.43176165  0.16107598    -0.14010
C1810       C  0.19089678  0.44761878  0.18738502    -0.29180
H1811       H  0.22302715  0.43219219  0.15269272     0.15010
H1812       H  0.16686984  0.44574476  0.19688496     0.15590
C1813       C  0.30729943  0.57007104  0.17338346    -0.14010
C1814       C  0.32553504  0.59530991  0.18034747    -0.29180
H1815       H  0.31165297  0.55664400  0.15205207     0.15010
H1816       H  0.32109674  0.60834169  0.20191981     0.15590
C1817       C  0.30203052  0.56701673  0.32493311    -0.14010
C1818       C  0.29444547  0.58597049  0.34915202    -0.29180
H1819       H  0.32674001  0.56473092  0.31734927     0.15010
H1820       H  0.26947163  0.58865080  0.35585744     0.15590
C1821       C  0.19255976  0.44099956  0.34144976    -0.14010
C1822       C  0.17754705  0.41328952  0.33640364    -0.29180
H1823       H  0.18657384  0.45539459  0.36176850     0.15010
H1824       H  0.18355258  0.39936579  0.31575216     0.15590
C1825       C  0.16967776  0.58026272  0.31924149    -0.14010
C1826       C  0.15571562  0.56578340  0.34366091    -0.29180
H1827       H  0.16712245  0.60578862  0.31665584     0.15010
H1828       H  0.15664614  0.54018533  0.34615591     0.15590
C1829       C  0.32480380  0.43511758  0.18916344    -0.14010
C1830       C  0.32033822  0.40573604  0.17817354    -0.29180
H1831       H  0.34333622  0.44999506  0.17919848     0.15010
H1832       H  0.30031456  0.39182760  0.18665367     0.15590
C1833       C  0.95603105  0.19092935  0.86033708    -0.14010
C1834       C  0.94724102  0.21267645  0.83891321    -0.29180
H1835       H  0.98134948  0.18626737  0.86406610     0.15010
H1836       H  0.92200921  0.21672403  0.83431133     0.15590
C1837       C  0.82918863  0.20206866  0.95327668    -0.14010
C1838       C  0.85577611  0.18550729  0.96021572    -0.29180
H1839       H  0.82110932  0.20324872  0.92912494     0.15010
H1840       H  0.86299725  0.18290246  0.98454070     0.15590
C1841       C  0.57927264  0.96617955  0.90805336    -0.14010
C1842       C  0.55620839  0.95625975  0.92803904    -0.29180
H1843       H  0.58379380  0.99144180  0.90615958     0.15010
H1844       H  0.55113714  0.93115516  0.93014747     0.15590
C1845       C  0.58153647  0.87003448  0.80831021    -0.14010
C1846       C  0.55979319  0.85000020  0.81989516    -0.29180
H1847       H  0.58410527  0.87306915  0.78316165     0.15010
H1848       H  0.55832582  0.84723745  0.84519017     0.15590
C1849       C  0.83115494  0.58542365  0.84418825    -0.14010
C1850       C  0.83502293  0.57316625  0.81544716    -0.29180
H1851       H  0.81159469  0.57729668  0.85888637     0.15010
H1852       H  0.85360773  0.58202234  0.80000464     0.15590
C1853       C  0.94750664  0.59796310  0.92275099    -0.14010
C1854       C  0.94493328  0.57035625  0.93843877    -0.29180
H1855       H  0.97071215  0.60943607  0.92224495     0.15010
H1856       H  0.92292548  0.55686572  0.93762903     0.15590
C1857       C  0.92519647  0.94717303  0.59338556    -0.14010
C1858       C  0.95018945  0.94019396  0.57453515    -0.29180
H1859       H  0.91803063  0.97180493  0.59624930     0.15010
H1860       H  0.95635973  0.91561493  0.56979513     0.15590
C1861       C  0.84498489  0.83503484  0.58028245    -0.14010
C1862       C  0.81582422  0.83877065  0.56733861    -0.29180
H1863       H  0.86020458  0.81571846  0.57218622     0.15010
H1864       H  0.79969919  0.85672621  0.57668556     0.15590
C1865       C  0.79485485  0.93166649  0.18879361    -0.14010
C1866       C  0.81931148  0.93852887  0.16955568    -0.29180
H1867       H  0.78861631  0.90721510  0.19362304     0.15010
H1868       H  0.82629005  0.96316509  0.16690548     0.15590
C1869       C  0.91785100  0.83482570  0.19643588    -0.14010
C1870       C  0.90187729  0.82360368  0.17171099    -0.29180
H1871       H  0.91788912  0.86028244  0.20049535     0.15010
H1872       H  0.90021878  0.79826908  0.16756608     0.15590
C1873       C  0.17454537  0.91068260  0.81513943    -0.14010
C1874       C  0.19449557  0.93324517  0.82582509    -0.29180
H1875       H  0.17801225  0.90045305  0.79199521     0.15010
H1876       H  0.19077964  0.94377021  0.84880340     0.15590
C1877       C  0.19445860  0.82827944  0.91732625    -0.14010
C1878       C  0.16749757  0.81687079  0.90497439    -0.29180
H1879       H  0.19953083  0.85338260  0.91457694     0.15010
H1880       H  0.16139489  0.79201352  0.90745856     0.15590
C1881       C  0.91613860  0.93935508  0.72170001    -0.10850
C1882       C  0.92884383  0.95339077  0.74306009    -0.12410
C1883       C  0.03843255  0.93603670  0.83168433    -0.10850
C1884       C  0.01657735  0.95077179  0.82014816    -0.12410
C1885       C  0.93886186  0.03849063  0.82289464    -0.10850
C1886       C  0.92967226  0.06099826  0.83805911    -0.12410
C1887       C  0.93180371  0.72327204  0.92237963    -0.10850
C1888       C  0.94284312  0.74484872  0.93692507    -0.12410
C1889       C  0.92653036  0.82476748  0.01878969    -0.10850
C1890       C  0.91062691  0.83560869  0.03991848    -0.12410
C1891       C  0.01427318  0.83436138  0.94076724    -0.10850
C1892       C  0.03533593  0.84508317  0.92480051    -0.12410
C1893       C  0.82298943  0.03719581  0.94036903    -0.10850
C1894       C  0.83876161  0.05885929  0.93029646    -0.12410
C1895       C  0.71270542  0.94786172  0.92168296    -0.10850
C1896       C  0.73505753  0.95910624  0.93577960    -0.12410
C1897       C  0.82836398  0.93800267  0.04066717    -0.10850
C1898       C  0.81673561  0.95244418  0.01903664    -0.12410
C1899       C  0.81623691  0.74801026  0.83114801    -0.10850
C1900       C  0.82836690  0.72487384  0.84375420    -0.12410
C1901       C  0.73912489  0.83913679  0.82170173    -0.10850
C1902       C  0.71674959  0.85538806  0.83086161    -0.12410
C1903       C  0.82469309  0.82458695  0.74246887    -0.10850
C1904       C  0.83732284  0.83613664  0.71943892    -0.12410
C1905       C  0.44906305  0.15918807  0.18365033    -0.14010
C1906       C  0.42450154  0.14592675  0.19890098    -0.29180
H1907       H  0.45077394  0.15598789  0.15839594     0.15010
H1908       H  0.42194789  0.14845931  0.22411896     0.15590
C1909       C  0.55861557  0.34246982  0.30307747    -0.14010
C1910       C  0.57624207  0.33510041  0.32843652    -0.29180
H1911       H  0.56386970  0.36337083  0.28922361     0.15010
H1912       H  0.57123941  0.31326883  0.34098187     0.15590
C1913       C  0.55995491  0.19042222  0.30366360    -0.14010
C1914       C  0.55444714  0.16389127  0.32011416    -0.29180
H1915       H  0.58336464  0.20134794  0.30524461     0.15010
H1916       H  0.53053746  0.15392086  0.32019119     0.15590
C1917       C  0.57230255  0.31614072  0.16958112    -0.14010
C1918       C  0.56373816  0.32922461  0.14220081    -0.29180
H1919       H  0.59364681  0.32406197  0.18172023     0.15010
H1920       H  0.54153430  0.32243677  0.13087395     0.15590
C1921       C  0.44418844  0.31810559  0.18490274    -0.14010
C1922       C  0.41905762  0.30944702  0.16706861    -0.29180
H1923       H  0.44937248  0.34305459  0.18835521     0.15010
H1924       H  0.41325124  0.28448751  0.16480541     0.15590
C1925       C  0.42823495  0.18860135  0.32091423    -0.14010
C1926       C  0.43636006  0.17539607  0.34841131    -0.29180
H1927       H  0.40735593  0.18024933  0.30829431     0.15010
H1928       H  0.45799893  0.18277535  0.36039461     0.15590
C1929       C  0.55664583  0.42020786  0.43203671    -0.14010
C1930       C  0.57559923  0.43234404  0.40974585    -0.29180
H1931       H  0.56194230  0.39746327  0.44278886     0.15010
H1932       H  0.57035969  0.45551412  0.39980456     0.15590
C1933       C  0.42872798  0.57679188  0.58951360    -0.14010
C1934       C  0.44306586  0.58442553  0.56237949    -0.29180
H1935       H  0.43627618  0.55574768  0.60224081     0.15010
H1936       H  0.43533339  0.60504609  0.54913139     0.15590
C1937       C  0.40857546  0.55681426  0.42962544    -0.14010
C1938       C  0.39392291  0.58125705  0.44380173    -0.29180
H1939       H  0.40484519  0.55307473  0.40465579     0.15010
H1940       H  0.39607723  0.58522757  0.46886165     0.15590
C1941       C  0.45643232  0.42966639  0.56478306    -0.14010
C1942       C  0.43335552  0.43845338  0.58511440    -0.29180
H1943       H  0.46098892  0.40475204  0.56005854     0.15010
H1944       H  0.42763451  0.46348503  0.58767917     0.15590
C1945       C  0.54547562  0.56933451  0.43146473    -0.14010
C1946       C  0.57188752  0.55904798  0.41622059    -0.29180
H1947       H  0.54105363  0.59454796  0.43441585     0.15010
H1948       H  0.57694231  0.53377529  0.41515953     0.15590
C1949       C  0.58595125  0.44069441  0.55752863    -0.14010
C1950       C  0.57979012  0.42693341  0.58497576    -0.29180
H1951       H  0.60508873  0.43203911  0.54247580     0.15010
H1952       H  0.55900323  0.43443551  0.59853519     0.15590
loop_ 
_geom_bond_atom_site_label_1 
_geom_bond_atom_site_label_2 
_geom_bond_distance 
_geom_bond_site_symmetry_2 
_ccdc_geom_bond_type 
O1           Ni7   1.919       .  S
O1           C22   1.271       .  A
O2          Ni25   1.891       .  S
O2           C11   1.258       .  A
O3           Ni7   1.906       .  S
O3          Ni25   1.904       .  S
O3          Ni19   1.910       .  S
O3           H26   0.966       .  S
C4           O21   1.272       .  A
C4           O13   1.271       .  A
C4         C1937   1.462       .  S
O5          Ni24   1.909       .  S
O5           C11   1.267       .  A
O6          Ni24   1.906       .  S
O6            C8   1.267       .  A
Ni7          O10   1.921       .  S
Ni7          O12   1.898       .  S
C8           O18   1.273       .  A
C8         C1945   1.481       .  S
O9          Ni25   1.889       .  S
O9           C15   1.263       .  A
O10          C15   1.276       .  A
C11        C1929   1.463       .  S
O12          C14   1.267       .  A
O13         Ni24   1.910       .  S
C14          O20   1.276       .  A
C14        C1941   1.483       .  S
C15        C1949   1.458       .  S
H16          O17   0.966       .  S
O17         Ni25   1.901       .  S
O17         Ni19   1.909       .  S
O17         Ni24   1.913       .  S
O18         Ni19   1.942       .  S
Ni19         O23   1.899       .  S
Ni19         O21   1.909       .  S
O20         Ni25   1.949       .  S
C22          O23   1.263       .  A
C22        C1934   1.472       .  S
O27         Ni33   1.908       .  S
O27          C48   1.266       .  A
O28         Ni51   1.907       .  S
O28          C37   1.264       .  A
O29         Ni33   1.920       .  S
O29         Ni51   1.909       .  S
O29         Ni45   1.916       .  S
O29          H52   0.968       .  S
C30          O47   1.262       .  A
C30          O39   1.272       .  A
C30        C1925   1.469       .  S
O31         Ni50   1.916       .  S
O31          C37   1.270       .  A
O32         Ni50   1.888       .  S
O32          C34   1.263       .  A
Ni33         O36   1.928       .  S
Ni33         O38   1.899       .  S
C34          O44   1.283       .  A
C34        C1913   1.476       .  S
O35         Ni51   1.893       .  S
O35          C41   1.261       .  A
O36          C41   1.270       .  A
C37        C1909   1.481       .  S
O38          C40   1.268       .  A
O39         Ni50   1.937       .  S
C40          O46   1.281       .  A
C40        C1921   1.485       .  S
C41        C1917   1.463       .  S
H42          O43   0.964       .  S
O43         Ni51   1.915       .  S
O43         Ni45   1.914       .  S
O43         Ni50   1.920       .  S
O44         Ni45   1.975       .  S
Ni45         O49   1.912       .  S
Ni45         O47   1.894       .  S
O46         Ni51   1.966       .  S
C48          O49   1.269       .  A
C48        C1905   1.469       .  S
C53          C54   1.412       .  A
C53          C58   1.414       .  A
C53        C1899   1.469       .  S
C54          C55   1.410       .  A
C54          H59   1.084       .  S
C55          C56   1.406       .  A
C55        C1903   1.461       .  S
C56          C57   1.406       .  A
C56          H60   1.085       .  S
C57          C58   1.414       .  A
C57        C1901   1.464       .  S
C58          H61   1.084       .  S
C62          C63   1.404       .  A
C62          C67   1.406       .  A
C62        C1896   1.449       .  S
C63          C64   1.404       .  A
C63          H68   1.084       .  S
C64          C65   1.401       .  A
C64        C1898   1.444   1_556  S
C65          C66   1.402   1_565  A
C65          H69   1.085   1_565  S
C66          C67   1.406   1_545  A
C66        C1893   1.446       .  S
C67          H70   1.084   1_565  S
C71          C72   1.408       .  A
C71          C76   1.399       .  A
C71        C1889   1.442   1_556  S
C72          C73   1.406       .  A
C72          H77   1.084       .  S
C73          C74   1.393       .  A
C73        C1891   1.435   1_655  S
C74          C75   1.390       .  A
C74          H78   1.086       .  S
C75          C76   1.398       .  A
C75        C1888   1.425       .  S
C76          H79   1.085       .  S
C80          C81   1.407       .  A
C80          C85   1.404       .  A
C80        C1882   1.449       .  S
C81          C82   1.407   1_565  A
C81          H86   1.084   1_565  S
C82          C83   1.402   1_545  A
C82        C1885   1.445       .  S
C83          C84   1.400       .  A
C83          H87   1.085   1_565  S
C84          C85   1.403       .  A
C84        C1884   1.444   1_655  S
C85          H88   1.085       .  S
O89         Ni97   1.905       .  S
O89          C99   1.275       .  A
O90         Ni97   1.898       .  S
O90         C100   1.277       .  A
O91         Ni97   1.928       .  S
O91         C101   1.282       .  A
O92         Ni97   1.921       .  S
O92         C102   1.285       .  A
O93         Ni98   1.913       .  S
O93         C102   1.277       .  A
O94         Ni98   1.913       .  S
O94         C101   1.278       .  A
O95         Ni98   1.928       .  S
O95         C100   1.284       .  A
O96         Ni98   1.925       .  S
O96          C99   1.283       .  A
Ni97        Ni98   2.392       .  S
C99        C1892   1.431       .  S
C100       C1873   1.472       .  S
C101       C1883   1.438       .  S
C102       C1878   1.473       .  S
O103       Ni111   1.934       .  S
O103        C113   1.284       .  A
O104       Ni111   1.943       .  S
O104        C114   1.287       .  A
O105       Ni111   1.915       .  S
O105        C115   1.278       .  A
O106       Ni111   1.913       .  S
O106        C116   1.277       .  A
O107       Ni112   1.924       .  S
O107        C116   1.285       .  A
O108       Ni112   1.926       .  S
O108        C115   1.282       .  A
O109       Ni112   1.902       .  S
O109        C114   1.276       .  A
O110       Ni112   1.905       .  S
O110        C113   1.276       .  A
Ni111      Ni112   2.391       .  S
C113       C1890   1.437       .  S
C114       C1866   1.476       .  S
C115       C1897   1.438       .  S
C116       C1870   1.474       .  S
O117       Ni125   1.939       .  S
O117        C127   1.284       .  A
O118       Ni125   1.935       .  S
O118        C128   1.284       .  A
O119       Ni125   1.922       .  S
O119        C129   1.280       .  A
O120       Ni125   1.923       .  S
O120        C130   1.281       .  A
O121       Ni126   1.937       .  S
O121        C130   1.285       .  A
O122       Ni126   1.929       .  S
O122        C129   1.282       .  A
O123       Ni126   1.924       .  S
O123        C128   1.282       .  A
O124       Ni126   1.928       .  S
O124        C127   1.281       .  A
Ni125      Ni126   2.387       .  S
C127       C1904   1.457       .  S
C128       C1857   1.485       .  S
C129       C1881   1.445       .  S
C130       C1861   1.489       .  S
O131       Ni139   1.918       .  S
O131        C141   1.280       .  A
O132       Ni139   1.927       .  S
O132        C142   1.284       .  A
O133       Ni139   1.927       .  S
O133        C143   1.281       .  A
O134       Ni139   1.921       .  S
O134        C144   1.281       .  A
O135       Ni140   1.948       .  S
O135        C144   1.287       .  A
O136       Ni140   1.953       .  S
O136        C143   1.288       .  A
O137       Ni140   1.895       .  S
O137        C142   1.275       .  A
O138       Ni140   1.893       .  S
O138        C141   1.274       .  A
Ni139      Ni140   2.390       .  S
C141       C1887   1.419       .  S
C142       C1849   1.465       .  S
C143       C1900   1.464       .  S
C144       C1853   1.487       .  S
O145       Ni153   1.942       .  S
O145        C155   1.286       .  A
O146       Ni153   1.943       .  S
O146        C156   1.287       .  A
O147       Ni153   1.918       .  S
O147        C157   1.279       .  A
O148       Ni153   1.925       .  S
O148        C158   1.279       .  A
O149       Ni154   1.922       .  S
O149        C158   1.285       .  A
O150       Ni154   1.931       .  S
O150        C157   1.283       .  A
O151       Ni154   1.928       .  S
O151        C156   1.281       .  A
O152       Ni154   1.930       .  S
O152        C155   1.281       .  A
Ni153      Ni154   2.387       .  S
C155       C1902   1.459       .  S
C156       C1841   1.493       .  S
C157       C1895   1.444       .  S
C158       C1845   1.486       .  S
O159       Ni167   1.924       .  S
O159        C169   1.281       .  A
O160       Ni167   1.924       .  S
O160        C170   1.283       .  A
O161       Ni167   1.922       .  S
O161        C171   1.280       .  A
O162       Ni167   1.916       .  S
O162        C172   1.282       .  A
O163       Ni168   1.925       .  S
O163        C172   1.281       .  A
O164       Ni168   1.922       .  S
O164        C171   1.281       .  A
O165       Ni168   1.926       .  S
O165        C170   1.282       .  A
O166       Ni168   1.922       .  S
O166        C169   1.281       .  A
Ni167      Ni168   2.390       .  S
C169       C1894   1.441       .  S
C170       C1833   1.483       .  S
C171       C1886   1.441       .  S
C172       C1838   1.482       .  S
O173       Ni179   1.926       .  S
O173        C194   1.272       .  A
O174       Ni197   1.906       .  S
O174        C183   1.265       .  A
O175       Ni179   1.909       .  S
O175       Ni197   1.910       .  S
O175       Ni191   1.914       .  S
O175        H198   0.966       .  S
C176        O193   1.273       .  A
C176        O185   1.275       .  A
C176       C1825   1.469       .  S
O177       Ni196   1.932       .  S
O177        C183   1.272       .  A
O178       Ni196   1.900       .  S
O178        C180   1.266       .  A
Ni179       O182   1.930       .  S
Ni179       O184   1.892       .  S
C180        O190   1.275       .  A
C180       C1817   1.470       .  S
O181       Ni197   1.898       .  S
O181        C187   1.267       .  A
O182        C187   1.276       .  A
C183       C1813   1.482       .  S
O184        C186   1.264       .  A
O185       Ni196   1.921       .  S
C186        O192   1.279       .  A
C186       C1810   1.473       .  S
C187       C1829   1.470       .  S
H188        O189   0.966       .  S
O189       Ni197   1.906       .  S
O189       Ni191   1.910       .  S
O189       Ni196   1.912       .  S
O190       Ni191   1.942       .  S
Ni191       O195   1.909       .  S
Ni191       O193   1.909       .  S
O192       Ni197   1.956       .  S
C194        O195   1.268       .  A
C194       C1821   1.484       .  S
O199       Ni205   1.900       .  S
O199        C220   1.266       .  A
O200       Ni223   1.907       .  S
O200        C209   1.264       .  A
O201       Ni205   1.916       .  S
O201       Ni223   1.913       .  S
O201       Ni217   1.923       .  S
O201        H224   0.967       .  S
C202        O219   1.266       .  A
C202        O211   1.271       .  A
C202       C1793   1.475       .  S
O203       Ni222   1.909       .  S
O203        C209   1.268       .  A
O204       Ni222   1.884       .  S
O204        C206   1.262       .  A
Ni205       O208   1.923       .  S
Ni205       O210   1.888       .  S
C206        O216   1.280       .  A
C206       C1789   1.464       .  S
O207       Ni223   1.906       .  S
O207        C213   1.266       .  A
O208        C213   1.269       .  A
C209       C1801   1.476       .  S
O210        C212   1.266       .  A
O211       Ni222   1.930       .  S
C212        O218   1.278       .  A
C212       C1797   1.476       .  S
C213       C1785   1.470       .  S
H214        O215   0.965       .  S
O215       Ni223   1.923       .  S
O215       Ni217   1.917       .  S
O215       Ni222   1.921       .  S
O216       Ni217   1.958       .  S
Ni217       O221   1.915       .  S
Ni217       O219   1.904       .  S
O218       Ni223   1.959       .  S
C220        O221   1.267       .  A
C220       C1806   1.479       .  S
O225       Ni231   1.923       .  S
O225        C246   1.271       .  A
O226       Ni249   1.936       .  S
O226        C235   1.276       .  A
O227       Ni231   1.903       .  S
O227       Ni249   1.917       .  S
O227       Ni243   1.926       .  S
O227        H250   0.966       .  S
C228        O245   1.279       .  A
C228        O237   1.275       .  A
C228       C1773   1.474       .  S
O229       Ni248   1.906       .  S
O229        C235   1.264       .  A
O230       Ni248   1.897       .  S
O230        C232   1.266       .  A
Ni231       O234   1.918       .  S
Ni231       O236   1.892       .  S
C232        O242   1.269       .  A
C232       C1778   1.475       .  S
O233       Ni249   1.922       .  S
O233        C239   1.277       .  A
O234        C239   1.273       .  A
C235       C1846   1.472       .  S
O236        C238   1.267       .  A
O237       Ni248   1.916       .  S
C238        O244   1.279       .  A
C238       C1769   1.468       .  S
C239       C1781   1.477       .  S
H240        O241   0.966       .  S
O241       Ni249   1.918       .  S
O241       Ni243   1.901       .  S
O241       Ni248   1.896       .  S
O242       Ni243   1.932       .  S
Ni243       O247   1.906       .  S
Ni243       O245   1.927       .  S
O244       Ni249   1.948       .  S
C246        O247   1.264       .  A
C246       C1766   1.478       .  S
O251       Ni257   1.902   1_556  S
O251        C272   1.266       .  A
O252       Ni275   1.901       .  S
O252        C261   1.259       .  A
O253       Ni257   1.915   1_556  S
O253       Ni275   1.904   1_556  S
O253       Ni269   1.929       .  S
O253        H276   0.967       .  S
C254        O271   1.277       .  A
C254        O263   1.269       .  A
C254       C1749   1.466       .  S
O255       Ni274   1.911       .  S
O255        C261   1.267       .  A
O256       Ni274   1.896   1_556  S
O256        C258   1.267       .  A
Ni257       O260   1.936       .  S
Ni257       O262   1.900       .  S
C258        O268   1.278       .  A
C258       C1753   1.483       .  S
O259       Ni275   1.885       .  S
O259        C265   1.258       .  A
O260        C265   1.271       .  A
C261       C1758   1.474       .  S
O262        C264   1.269       .  A
O263       Ni274   1.905   1_556  S
C264        O270   1.279       .  A
C264       C1745   1.480       .  S
C265       C1762   1.460       .  S
H266        O267   0.966       .  S
O267       Ni275   1.899       .  S
O267       Ni269   1.911   1_554  S
O267       Ni274   1.908       .  S
O268       Ni269   1.951       .  S
Ni269       O273   1.919       .  S
Ni269       O271   1.915       .  S
O270       Ni275   1.961       .  S
C272        O273   1.274       .  A
C272       C1877   1.465       .  S
O277       Ni283   1.911       .  S
O277        C298   1.269       .  A
O278       Ni301   1.904       .  S
O278        C287   1.264       .  A
O279       Ni283   1.901   1_655  S
O279       Ni301   1.899   1_556  S
O279       Ni295   1.915   1_655  S
O279        H302   0.966       .  S
C280        O297   1.279       .  A
C280        O289   1.272       .  A
C280       C1729   1.465       .  S
O281       Ni300   1.914   1_655  S
O281        C287   1.270       .  A
O282       Ni300   1.912   1_656  S
O282        C284   1.269       .  A
Ni283       O286   1.930   1_456  S
Ni283       O288   1.900   1_556  S
C284        O294   1.280       .  A
C284       C1854   1.492       .  S
O285       Ni301   1.882       .  S
O285        C291   1.263       .  A
O286        C291   1.275       .  A
C287       C1733   1.475       .  S
O288        C290   1.268       .  A
O289       Ni300   1.905   1_556  S
C290        O296   1.285       .  A
C290       C1725   1.498       .  S
C291       C1741   1.455       .  S
H292        O293   0.966       .  S
O293       Ni301   1.900   1_455  S
O293       Ni295   1.898   1_554  S
O293       Ni300   1.904       .  S
O294       Ni295   1.960   1_655  S
Ni295       O299   1.915       .  S
Ni295       O297   1.920       .  S
O296       Ni301   1.975   1_455  S
C298        O299   1.275       .  A
C298       C1737   1.465       .  S
O303       Ni309   1.926       .  S
O303        C324   1.269       .  A
O304       Ni327   1.904       .  S
O304        C313   1.268       .  A
O305       Ni309   1.897       .  S
O305       Ni327   1.899   1_565  S
O305       Ni321   1.894   1_565  S
O305        H328   0.966       .  S
C306        O323   1.265       .  A
C306        O315   1.275       .  A
C306       C1705   1.473       .  S
O307       Ni326   1.924       .  S
O307        C313   1.271       .  A
O308       Ni326   1.888       .  S
O308        C310   1.266       .  A
Ni309       O312   1.909       .  S
Ni309       O314   1.898       .  S
C310        O320   1.279       .  A
C310       C1722   1.470       .  S
O311       Ni327   1.932   1_565  S
O311        C317   1.282       .  A
O312        C317   1.275       .  A
C313       C1713   1.472       .  S
O314        C316   1.268       .  A
O315       Ni326   1.926       .  S
C316        O322   1.271       .  A
C316       C1709   1.474       .  S
C317       C1718   1.470       .  S
H318        O319   0.966       .  S
O319       Ni327   1.929       .  S
O319       Ni321   1.911       .  S
O319       Ni326   1.913       .  S
O320       Ni321   1.951       .  S
Ni321       O325   1.899   1_545  S
Ni321       O323   1.904       .  S
O322       Ni327   1.935   1_565  S
C324        O325   1.265       .  A
C324       C1874   1.471       .  S
O329       Ni335   1.920       .  S
O329        C350   1.270       .  A
O330       Ni353   1.915       .  S
O330        C339   1.271       .  A
O331       Ni335   1.908       .  S
O331       Ni353   1.908       .  S
O331       Ni347   1.911       .  S
O331        H354   0.966       .  S
C332        O349   1.267       .  A
C332        O341   1.275       .  A
C332       C1862   1.487       .  S
O333       Ni352   1.921       .  S
O333        C339   1.272       .  A
O334       Ni352   1.883       .  S
O334        C336   1.267       .  A
Ni335       O338   1.914       .  S
Ni335       O340   1.895       .  S
C336        O346   1.276       .  A
C336       C1702   1.475       .  S
O337       Ni353   1.949       .  S
O337        C343   1.284       .  A
O338        C343   1.272       .  A
C339       C1685   1.481       .  S
O340        C342   1.265       .  A
O341       Ni352   1.942       .  S
C342        O348   1.274       .  A
C342       C1689   1.466       .  S
C343       C1697   1.486       .  S
H344        O345   0.966       .  S
O345       Ni353   1.946       .  S
O345       Ni347   1.911       .  S
O345       Ni352   1.918       .  S
O346       Ni347   1.944       .  S
Ni347       O351   1.894       .  S
Ni347       O349   1.910       .  S
O348       Ni353   1.944       .  S
C350        O351   1.260       .  A
C350       C1693   1.472       .  S
O355       Ni361   1.917   1_455  S
O355        C376   1.269       .  A
O356       Ni379   1.906       .  S
O356        C365   1.268       .  A
O357       Ni361   1.905       .  S
O357       Ni379   1.903       .  S
O357       Ni373   1.901   1_655  S
O357        H380   0.966       .  S
C358        O375   1.263       .  A
C358        O367   1.276       .  A
C358       C1681   1.479       .  S
O359       Ni378   1.920       .  S
O359        C365   1.272       .  A
O360       Ni378   1.883       .  S
O360        C362   1.262       .  A
Ni361       O364   1.908       .  S
Ni361       O366   1.905   1_655  S
C362        O372   1.281       .  A
C362       C1669   1.466       .  S
O363       Ni379   1.932       .  S
O363        C369   1.280       .  A
O364        C369   1.272       .  A
C365       C1674   1.478       .  S
O366        C368   1.269       .  A
O367       Ni378   1.952   1_455  S
C368        O374   1.274       .  A
C368       C1665   1.486       .  S
C369       C1869   1.473       .  S
H370        O371   0.966       .  S
O371       Ni379   1.939   1_455  S
O371       Ni373   1.914       .  S
O371       Ni378   1.919   1_455  S
O372       Ni373   1.963   1_655  S
Ni373       O377   1.908       .  S
Ni373       O375   1.897       .  S
O374       Ni379   1.941   1_455  S
C376        O377   1.264       .  A
C376       C1677   1.477       .  S
O381       Ni387   1.940   1_565  S
O381        C402   1.276       .  A
O382       Ni405   1.909       .  S
O382        C391   1.269       .  A
O383       Ni387   1.903       .  S
O383       Ni405   1.899   1_554  S
O383       Ni399   1.904   1_545  S
O383        H406   0.966       .  S
C384        O401   1.270       .  A
C384        O393   1.274       .  A
C384       C1658   1.454       .  S
O385       Ni404   1.916   1_546  S
O385        C391   1.270       .  A
O386       Ni404   1.900   1_545  S
O386        C388   1.266       .  A
Ni387       O390   1.926   1_554  S
Ni387       O392   1.899   1_544  S
C388        O398   1.277       .  A
C388       C1645   1.477       .  S
O389       Ni405   1.899       .  S
O389        C395   1.270       .  A
O390        C395   1.279       .  A
C391       C1662   1.475       .  S
O392        C394   1.267       .  A
O393       Ni404   1.909       .  S
C394        O400   1.283       .  A
C394       C1842   1.487       .  S
C395       C1650   1.460       .  S
H396        O397   0.966       .  S
O397       Ni405   1.907   1_565  S
O397       Ni399   1.902   1_556  S
O397       Ni404   1.908   1_556  S
O398       Ni399   1.952   1_545  S
Ni399       O403   1.898       .  S
Ni399       O401   1.901       .  S
O400       Ni405   1.966   1_565  S
C402        O403   1.264       .  A
C402       C1653   1.479       .  S
C407        C408   1.400       .  A
C407        C412   1.395       .  A
C407       C1642   1.426       .  S
C408        C409   1.401       .  A
C408        H413   1.084       .  S
C409        C410   1.394       .  A
C409       C1643   1.427       .  S
C410        C411   1.393       .  A
C410        H414   1.085       .  S
C411        C412   1.392       .  A
C411       C1640   1.420       .  S
C412        H415   1.085       .  S
O416       Ni424   1.928       .  S
O416        C426   1.282       .  A
O417       Ni424   1.925       .  S
O417        C427   1.283       .  A
O418       Ni424   1.900       .  S
O418        C428   1.275       .  A
O419       Ni424   1.893       .  S
O419        C429   1.279       .  A
O420       Ni425   1.921       .  S
O420        C429   1.280       .  A
O421       Ni425   1.916       .  S
O421        C428   1.281       .  A
O422       Ni425   1.919       .  S
O422        C427   1.281       .  A
O423       Ni425   1.916       .  S
O423        C426   1.279       .  A
Ni424      Ni425   2.393       .  S
C426       C1637   1.440       .  S
C427       C1818   1.479       .  S
C428       C1641   1.422       .  S
C429       C1938   1.466       .  S
C430        C431   1.404       .  A
C430        C435   1.399       .  A
C430       C1632   1.438       .  S
C431        C432   1.403       .  A
C431        H436   1.084       .  S
C432        C433   1.398       .  A
C432       C1635   1.437   1_565  S
C433        C434   1.397       .  A
C433        H437   1.085       .  S
C434        C435   1.398       .  A
C434       C1633   1.432       .  S
C435        H438   1.085       .  S
O439       Ni447   1.924       .  S
O439        C449   1.282       .  A
O440       Ni447   1.929       .  S
O440        C450   1.283       .  A
O441       Ni447   1.922       .  S
O441        C451   1.281       .  A
O442       Ni447   1.924       .  S
O442        C452   1.280       .  A
O443       Ni448   1.906       .  S
O443        C452   1.283       .  A
O444       Ni448   1.917       .  S
O444        C451   1.279       .  A
O445       Ni448   1.909       .  S
O445        C450   1.280       .  A
O446       Ni448   1.910       .  S
O446        C449   1.277       .  A
Ni447      Ni448   2.391       .  S
C449       C1631   1.433       .  S
C450       C1690   1.480       .  S
C451       C1630   1.438       .  S
C452       C1625   1.480       .  S
O453       Ni461   1.913       .  S
O453        C463   1.279       .  A
O454       Ni461   1.909       .  S
O454        C464   1.278       .  A
O455       Ni461   1.916       .  S
O455        C465   1.280       .  A
O456       Ni461   1.913       .  S
O456        C466   1.280       .  A
O457       Ni462   1.894       .  S
O457        C466   1.277       .  A
O458       Ni462   1.899       .  S
O458        C465   1.275       .  A
O459       Ni462   1.905       .  S
O459        C464   1.281       .  A
O460       Ni462   1.910       .  S
O460        C463   1.278       .  A
Ni461      Ni462   2.396       .  S
C463       C1634   1.427       .  S
C464       C1761   1.464       .  S
C465       C1644   1.422       .  S
C466       C1657   1.459       .  S
C467        C468   1.405       .  A
C467        C472   1.402       .  A
C467       C1624   1.441       .  S
C468        C469   1.403       .  A
C468        H473   1.084       .  S
C469        C470   1.399       .  A
C469       C1621   1.441   1_565  S
C470        C471   1.399       .  A
C470        H474   1.085       .  S
C471        C472   1.400       .  A
C471       C1619   1.438       .  S
C472        H475   1.085       .  S
C476        C477   1.402       .  A
C476        C481   1.403       .  A
C476       C1629   1.443       .  S
C477        C478   1.402       .  A
C477        H482   1.085       .  S
C478        C479   1.405       .  A
C478       C1638   1.445       .  S
C479        C480   1.405       .  A
C479        H483   1.084       .  S
C480        C481   1.403       .  A
C480       C1617   1.446       .  S
C481        H484   1.085       .  S
O485       Ni493   1.915       .  S
O485        C495   1.279       .  A
O486       Ni493   1.922       .  S
O486        C496   1.282       .  A
O487       Ni493   1.923       .  S
O487        C497   1.281       .  A
O488       Ni493   1.924       .  S
O488        C498   1.280       .  A
O489       Ni494   1.908       .  S
O489        C498   1.282       .  A
O490       Ni494   1.922       .  S
O490        C497   1.280       .  A
O491       Ni494   1.919       .  S
O491        C496   1.281       .  A
O492       Ni494   1.919       .  S
O492        C495   1.280       .  A
Ni493      Ni494   2.392       .  S
C495       C1620   1.433       .  S
C496       C1770   1.476       .  S
C497       C1618   1.441       .  S
C498       C1717   1.474       .  S
O499       Ni507   1.911       .  S
O499        C509   1.278       .  A
O500       Ni507   1.905       .  S
O500        C510   1.279       .  A
O501       Ni507   1.920       .  S
O501        C511   1.281       .  A
O502       Ni507   1.917       .  S
O502        C512   1.280       .  A
O503       Ni508   1.911       .  S
O503        C512   1.281       .  A
O504       Ni508   1.917       .  S
O504        C511   1.279       .  A
O505       Ni508   1.920       .  S
O505        C510   1.281       .  A
O506       Ni508   1.920       .  S
O506        C509   1.281       .  A
Ni507      Ni508   2.393       .  S
C509       C1636   1.432       .  S
C510       C1802   1.466       .  S
C511       C1622   1.436       .  S
C512       C1926   1.472       .  S
O513       Ni521   1.905       .  S
O513        C523   1.277       .  A
O514       Ni521   1.904       .  S
O514        C524   1.279       .  A
O515       Ni521   1.925       .  S
O515        C525   1.282       .  A
O516       Ni521   1.928       .  S
O516        C526   1.283       .  A
O517       Ni522   1.909       .  S
O517        C526   1.277       .  A
O518       Ni522   1.902       .  S
O518        C525   1.278       .  A
O519       Ni522   1.897       .  S
O519        C524   1.277       .  A
O520       Ni522   1.900       .  S
O520        C523   1.277       .  A
Ni521      Ni522   2.396       .  S
C523       C1639   1.415       .  S
C524       C1613   1.452       .  S
C525       C1678   1.466       .  S
C526       C1623   1.436       .  S
O527       Ni533   1.925       .  S
O527        C548   1.271       .  A
O528       Ni551   1.922       .  S
O528        C537   1.272       .  A
O529       Ni533   1.905       .  S
O529       Ni551   1.912   1_545  S
O529       Ni545   1.910       .  S
O529        H552   0.966       .  S
C530        O547   1.269       .  A
C530        O539   1.273       .  A
C530       C1610   1.465       .  S
O531       Ni550   1.905   1_565  S
O531        C537   1.265       .  A
O532       Ni550   1.896       .  S
O532        C534   1.267       .  A
Ni533       O536   1.917   1_545  S
Ni533       O538   1.897   1_545  S
C534        O544   1.276       .  A
C534       C1601   1.486       .  S
O535       Ni551   1.914       .  S
O535        C541   1.277       .  A
O536        C541   1.274       .  A
C537       C1626   1.465       .  S
O538        C540   1.269       .  A
O539       Ni550   1.916       .  S
C540        O546   1.276       .  A
C540       C1865   1.483       .  S
C541       C1606   1.469       .  S
H542        O543   0.966       .  S
O543       Ni551   1.921       .  S
O543       Ni545   1.906   1_565  S
O543       Ni550   1.906   1_565  S
O544       Ni545   1.950       .  S
Ni545       O549   1.899       .  S
Ni545       O547   1.906       .  S
O546       Ni551   1.946       .  S
C548        O549   1.262       .  A
C548       C1597   1.475       .  S
O553       Ni559   1.915   1_556  S
O553        C574   1.267       .  A
O554       Ni577   1.911       .  S
O554        C563   1.269       .  A
O555       Ni559   1.916       .  S
O555       Ni577   1.913       .  S
O555       Ni571   1.898   1_554  S
O555        H578   0.967       .  S
C556        O573   1.259       .  A
C556        O565   1.273       .  A
C556       C1589   1.467       .  S
O557       Ni576   1.916   1_554  S
O557        C563   1.269       .  A
O558       Ni576   1.891   1_554  S
O558        C560   1.265       .  A
Ni559       O562   1.906       .  S
Ni559       O564   1.896   1_554  S
C560        O570   1.282       .  A
C560       C1585   1.471       .  S
O561       Ni577   1.906       .  S
O561        C567   1.272       .  A
O562        C567   1.269       .  A
C563       C1594   1.473       .  S
O564        C566   1.265       .  A
O565       Ni576   1.938       .  S
C566        O572   1.274       .  A
C566       C1837   1.469       .  S
C567       C1578   1.460       .  S
H568        O569   0.965       .  S
O569       Ni577   1.929   1_556  S
O569       Ni571   1.913       .  S
O569       Ni576   1.914       .  S
O570       Ni571   1.970   1_554  S
Ni571       O575   1.902       .  S
Ni571       O573   1.890       .  S
O572       Ni577   1.945   1_556  S
C574        O575   1.262       .  A
C574       C1582   1.471       .  S
C579        C580   1.403       .  A
C579        C584   1.407       .  A
C579       C1573   1.448       .  S
C580        C581   1.403       .  A
C580        H585   1.084       .  S
C581        C582   1.399       .  A
C581       C1572   1.439       .  S
C582        C583   1.399       .  A
C582        H586   1.085       .  S
C583        C584   1.406       .  A
C583       C1576   1.444       .  S
C584        H587   1.084       .  S
C588        C589   1.404       .  A
C588        C593   1.397       .  A
C588       C1566   1.437       .  S
C589        C590   1.405       .  A
C589        H594   1.084       .  S
C590        C591   1.404       .  A
C590       C1569   1.445       .  S
C591        C592   1.402       .  A
C591        H595   1.085       .  S
C592        C593   1.395       .  A
C592       C1567   1.436   1_556  S
C593        H596   1.085       .  S
C597        C598   1.405       .  A
C597        C602   1.404       .  A
C597       C1561   1.446       .  S
C598        C599   1.404       .  A
C598        H603   1.084       .  S
C599        C600   1.398       .  A
C599       C1563   1.439       .  S
C600        C601   1.397       .  A
C600        H604   1.085       .  S
C601        C602   1.403       .  A
C601       C1559   1.439       .  S
C602        H605   1.084       .  S
C606        C607   1.407       .  A
C606        C611   1.408       .  A
C606       C1557   1.452   1_556  S
C607        C608   1.405       .  A
C607        H612   1.084       .  S
C608        C609   1.396       .  A
C608       C1555   1.442       .  S
C609        C610   1.397       .  A
C609        H613   1.085       .  S
C610        C611   1.406       .  A
C610       C1553   1.442       .  S
C611        H614   1.084       .  S
O615       Ni623   1.924       .  S
O615        C625   1.282       .  A
O616       Ni623   1.921       .  S
O616        C626   1.280       .  A
O617       Ni623   1.923       .  S
O617        C627   1.281       .  A
O618       Ni623   1.930       .  S
O618        C628   1.283       .  A
O619       Ni624   1.920       .  S
O619        C628   1.281       .  A
O620       Ni624   1.922       .  S
O620        C627   1.281       .  A
O621       Ni624   1.915       .  S
O621        C626   1.282       .  A
O622       Ni624   1.916       .  S
O622        C625   1.278       .  A
Ni623      Ni624   2.390       .  S
C625       C1554   1.437       .  S
C626       C1774   1.476       .  S
C627       C1562   1.441       .  S
C628       C1754   1.479       .  S
O629       Ni637   1.927       .  S
O629        C639   1.282       .  A
O630       Ni637   1.922       .  S
O630        C640   1.284       .  A
O631       Ni637   1.909       .  S
O631        C641   1.277       .  A
O632       Ni637   1.905       .  S
O632        C642   1.279       .  A
O633       Ni638   1.921       .  S
O633        C642   1.282       .  A
O634       Ni638   1.923       .  S
O634        C641   1.282       .  A
O635       Ni638   1.901       .  S
O635        C640   1.276       .  A
O636       Ni638   1.906       .  S
O636        C639   1.276       .  A
Ni637      Ni638   2.393       .  S
C639       C1560   1.434       .  S
C640       C1590   1.466       .  S
C641       C1565   1.432       .  S
C642       C1549   1.470       .  S
O643       Ni651   1.932       .  S
O643        C653   1.283       .  A
O644       Ni651   1.932       .  S
O644        C654   1.283       .  A
O645       Ni651   1.921       .  S
O645        C655   1.281       .  A
O646       Ni651   1.917       .  S
O646        C656   1.281       .  A
O647       Ni652   1.917       .  S
O647        C656   1.281       .  A
O648       Ni652   1.914       .  S
O648        C655   1.278       .  A
O649       Ni652   1.917       .  S
O649        C654   1.280       .  A
O650       Ni652   1.917       .  S
O650        C653   1.279       .  A
Ni651      Ni652   2.391       .  S
C653       C1574   1.443       .  S
C654       C1942   1.478       .  S
C655       C1564   1.434       .  S
C656       C1794   1.475       .  S
O657       Ni665   1.923       .  S
O657        C667   1.280       .  A
O658       Ni665   1.923       .  S
O658        C668   1.282       .  A
O659       Ni665   1.923       .  S
O659        C669   1.282       .  A
O660       Ni665   1.921       .  S
O660        C670   1.283       .  A
O661       Ni666   1.906       .  S
O661        C670   1.277       .  A
O662       Ni666   1.904       .  S
O662        C669   1.276       .  A
O663       Ni666   1.926       .  S
O663        C668   1.283       .  A
O664       Ni666   1.931       .  S
O664        C667   1.283       .  A
Ni665      Ni666   2.391       .  S
C667       C1558   1.447       .  S
C668       C1922   1.481       .  S
C669       C1568   1.430       .  S
C670       C1830   1.468       .  S
O671       Ni679   1.929       .  S
O671        C681   1.282       .  A
O672       Ni679   1.928       .  S
O672        C682   1.284       .  A
O673       Ni679   1.916       .  S
O673        C683   1.279       .  A
O674       Ni679   1.908       .  S
O674        C684   1.278       .  A
O675       Ni680   1.918       .  S
O675        C684   1.282       .  A
O676       Ni680   1.919       .  S
O676        C683   1.280       .  A
O677       Ni680   1.913       .  S
O677        C682   1.279       .  A
O678       Ni680   1.914       .  S
O678        C681   1.279       .  A
Ni679      Ni680   2.392       .  S
C681       C1570   1.440       .  S
C682       C1721   1.472       .  S
C683       C1571   1.434       .  S
C684       C1661   1.468       .  S
O685       Ni693   1.930       .  S
O685        C695   1.283       .  A
O686       Ni693   1.931       .  S
O686        C696   1.285       .  A
O687       Ni693   1.914       .  S
O687        C697   1.277       .  A
O688       Ni693   1.913       .  S
O688        C698   1.278       .  A
O689       Ni694   1.929       .  S
O689        C698   1.283       .  A
O690       Ni694   1.925       .  S
O690        C697   1.285       .  A
O691       Ni694   1.900       .  S
O691        C696   1.276       .  A
O692       Ni694   1.907       .  S
O692        C695   1.276       .  A
Ni693      Ni694   2.392       .  S
C695       C1556   1.436       .  S
C696       C1545   1.473       .  S
C697       C1738   1.473       .  S
C698       C1575   1.439       .  S
C699        C700   1.405       .  A
C699        C704   1.403       .  A
C699       C1543   1.444       .  S
C700        C701   1.403       .  A
C700        H705   1.084       .  S
C701        C702   1.397       .  A
C701       C1541   1.438       .  S
C702        C703   1.397       .  A
C702        H706   1.085       .  S
C703        C704   1.403       .  A
C703       C1539   1.436       .  S
C704        H707   1.084       .  S
O708       Ni716   1.924       .  S
O708        C718   1.282       .  A
O709       Ni716   1.933       .  S
O709        C719   1.285       .  A
O710       Ni716   1.911       .  S
O710        C720   1.277       .  A
O711       Ni716   1.920       .  S
O711        C721   1.279       .  A
O712       Ni717   1.935       .  S
O712        C721   1.287       .  A
O713       Ni717   1.935       .  S
O713        C720   1.285       .  A
O714       Ni717   1.914       .  S
O714        C719   1.279       .  A
O715       Ni717   1.907       .  S
O715        C718   1.276       .  A
Ni716      Ni717   2.390       .  S
C718       C1540   1.431       .  S
C719       C1946   1.482       .  S
C720       C1538   1.441       .  S
C721       C1698   1.490       .  S
C722        C723   1.403       .  A
C722        C727   1.401       .  A
C722       C1533   1.442       .  S
C723        C724   1.404   1_554  A
C723        H728   1.084       .  S
C724        C725   1.397   1_556  A
C724       C1536   1.438       .  S
C725        C726   1.397       .  A
C725        H729   1.085   1_554  S
C726        C727   1.400       .  A
C726       C1531   1.434       .  S
C727        H730   1.085       .  S
C731        C732   1.405       .  A
C731        C736   1.404       .  A
C731       C1526   1.447       .  S
C732        C733   1.406       .  A
C732        H737   1.084       .  S
C733        C734   1.398       .  A
C733       C1530   1.440   1_554  S
C734        C735   1.397       .  A
C734        H738   1.085       .  S
C735        C736   1.403       .  A
C735       C1527   1.438       .  S
C736        H739   1.085       .  S
C740        C741   1.410       .  A
C740        C745   1.403       .  A
C740       C1523   1.452       .  S
C741        C742   1.409       .  A
C741        H746   1.084       .  S
C742        C743   1.397       .  A
C742       C1537   1.445       .  S
C743        C744   1.396       .  A
C743        H747   1.085       .  S
C744        C745   1.402       .  A
C744       C1522   1.437       .  S
C745        H748   1.085       .  S
O749       Ni757   1.926       .  S
O749        C759   1.282       .  A
O750       Ni757   1.925       .  S
O750        C760   1.282       .  A
O751       Ni757   1.911       .  S
O751        C761   1.279       .  A
O752       Ni757   1.918       .  S
O752        C762   1.279       .  A
O753       Ni758   1.929       .  S
O753        C762   1.282       .  A
O754       Ni758   1.930       .  S
O754        C761   1.284       .  A
O755       Ni758   1.892       .  S
O755        C760   1.276       .  A
O756       Ni758   1.902       .  S
O756        C759   1.276       .  A
Ni757      Ni758   2.393       .  S
C759       C1521   1.431       .  S
C760       C1757   1.458       .  S
C761       C1814   1.476       .  S
C762       C1525   1.442       .  S
O763       Ni771   1.923       .  S
O763        C773   1.280       .  A
O764       Ni771   1.920       .  S
O764        C774   1.283       .  A
O765       Ni771   1.911       .  S
O765        C775   1.278       .  A
O766       Ni771   1.904       .  S
O766        C776   1.280       .  A
O767       Ni772   1.912       .  S
O767        C776   1.279       .  A
O768       Ni772   1.913       .  S
O768        C775   1.279       .  A
O769       Ni772   1.928       .  S
O769        C774   1.282       .  A
O770       Ni772   1.931       .  S
O770        C773   1.283       .  A
Ni771      Ni772   2.392       .  S
C773       C1524   1.447       .  S
C774       C1586   1.484       .  S
C775       C1532   1.428       .  S
C776       C1918   1.464       .  S
O777       Ni785   1.926       .  S
O777        C787   1.282       .  A
O778       Ni785   1.928       .  S
O778        C788   1.284       .  A
O779       Ni785   1.905       .  S
O779        C789   1.278       .  A
O780       Ni785   1.907       .  S
O780        C790   1.276       .  A
O781       Ni786   1.929       .  S
O781        C790   1.283       .  A
O782       Ni786   1.931       .  S
O782        C789   1.284       .  A
O783       Ni786   1.905       .  S
O783        C788   1.277       .  A
O784       Ni786   1.906       .  S
O784        C787   1.276       .  A
Ni785      Ni786   2.393       .  S
C787       C1535   1.432       .  S
C788       C1777   1.471       .  S
C789       C1517   1.472       .  S
C790       C1529   1.435       .  S
O791       Ni799   1.907       .  S
O791        C801   1.277       .  A
O792       Ni799   1.898       .  S
O792        C802   1.277       .  A
O793       Ni799   1.921       .  S
O793        C803   1.280       .  A
O794       Ni799   1.923       .  S
O794        C804   1.282       .  A
O795       Ni800   1.908       .  S
O795        C804   1.279       .  A
O796       Ni800   1.917       .  S
O796        C803   1.280       .  A
O797       Ni800   1.923       .  S
O797        C802   1.281       .  A
O798       Ni800   1.924       .  S
O798        C801   1.282       .  A
Ni799      Ni800   2.393       .  S
C801       C1542   1.433       .  S
C802       C1734   1.461       .  S
C803       C1534   1.437       .  S
C804       C1673   1.470       .  S
O805       Ni813   1.923       .  S
O805        C815   1.281       .  A
O806       Ni813   1.920       .  S
O806        C816   1.284       .  A
O807       Ni813   1.911       .  S
O807        C817   1.278       .  A
O808       Ni813   1.903       .  S
O808        C818   1.277       .  A
O809       Ni814   1.934       .  S
O809        C818   1.285       .  A
O810       Ni814   1.930       .  S
O810        C817   1.283       .  A
O811       Ni814   1.906       .  S
O811        C816   1.276       .  A
O812       Ni814   1.909       .  S
O812        C815   1.277       .  A
Ni813      Ni814   2.393       .  S
C815       C1528   1.432       .  S
C816       C1605   1.465       .  S
C817       C1544   1.439       .  S
C818       C1654   1.473       .  S
O819       Ni825   1.928       .  S
O819        C840   1.270       .  A
O820       Ni843   1.899       .  S
O820        C829   1.263       .  A
O821       Ni825   1.918       .  S
O821       Ni843   1.915       .  S
O821       Ni837   1.911       .  S
O821        H844   0.968       .  S
C822        O839   1.264       .  A
C822        O831   1.274       .  A
C822       C1850   1.472       .  S
O823       Ni842   1.922       .  S
O823        C829   1.268       .  A
O824       Ni842   1.892       .  S
O824        C826   1.266       .  A
Ni825       O828   1.929       .  S
Ni825       O830   1.894       .  S
C826        O836   1.273       .  A
C826       C1518   1.476       .  S
O827       Ni843   1.898       .  S
O827        C833   1.263       .  A
O828        C833   1.274       .  A
C829       C1550   1.471       .  S
O830        C832   1.268       .  A
O831       Ni842   1.927       .  S
C832        O838   1.279       .  A
C832       C1505   1.485       .  S
C833       C1509   1.469       .  S
H834        O835   0.965       .  S
O835       Ni843   1.909       .  S
O835       Ni837   1.915       .  S
O835       Ni842   1.923       .  S
O836       Ni837   1.949       .  S
Ni837       O841   1.893       .  S
Ni837       O839   1.898       .  S
O838       Ni843   1.964       .  S
C840        O841   1.261       .  A
C840       C1513   1.470       .  S
O845       Ni851   1.904   1_655  S
O845        C866   1.272       .  A
O846       Ni869   1.901       .  S
O846        C855   1.266       .  A
O847       Ni851   1.890       .  S
O847       Ni869   1.893   1_545  S
O847       Ni863   1.906   1_455  S
O847        H870   0.966       .  S
C848        O865   1.276       .  A
C848        O857   1.272       .  A
C848       C1501   1.460       .  S
O849       Ni868   1.907   1_455  S
O849        C855   1.270       .  A
O850       Ni868   1.914   1_445  S
O850        C852   1.269       .  A
Ni851       O854   1.913   1_545  S
Ni851       O856   1.908   1_445  S
C852        O862   1.275       .  A
C852       C1490   1.487       .  S
O853       Ni869   1.902       .  S
O853        C859   1.275       .  A
O854        C859   1.273       .  A
C855       C1614   1.463       .  S
O856        C858   1.269       .  A
O857       Ni868   1.905   1_545  S
C858        O864   1.276       .  A
C858       C1858   1.489       .  S
C859       C1498   1.457       .  S
H860        O861   0.966   1_565  S
O861       Ni869   1.905   1_645  S
O861       Ni863   1.887       .  S
O861       Ni868   1.892   1_545  S
O862       Ni863   1.946   1_455  S
Ni863       O867   1.898       .  S
Ni863       O865   1.915       .  S
O864       Ni869   1.949   1_655  S
C866        O867   1.265       .  A
C866       C1494   1.466       .  S
C871        C872   1.401       .  A
C871        C876   1.395       .  A
C871       C1487   1.432       .  S
C872        C873   1.401       .  A
C872        H877   1.085       .  S
C873        C874   1.405       .  A
C873       C1483   1.441       .  S
C874        C875   1.403       .  A
C874        H878   1.084       .  S
C875        C876   1.397       .  A
C875       C1485   1.436       .  S
C876        H879   1.085       .  S
C880        C881   1.404       .  A
C880        C885   1.406       .  A
C880       C1482   1.449       .  S
C881        C882   1.404       .  A
C881        H886   1.085       .  S
C882        C883   1.401       .  A
C882       C1479   1.446       .  S
C883        C884   1.404       .  A
C883        H887   1.085       .  S
C884        C885   1.406       .  A
C884       C1478   1.447       .  S
C885        H888   1.084       .  S
C889        C890   1.406       .  A
C889        C894   1.408       .  A
C889       C1474   1.451       .  S
C890        C891   1.404       .  A
C890        H895   1.084       .  S
C891        C892   1.396       .  A
C891       C1475   1.439       .  S
C892        C893   1.396       .  A
C892        H896   1.085       .  S
C893        C894   1.407       .  A
C893       C1471   1.442       .  S
C894        H897   1.084       .  S
O898       Ni906   1.920       .  S
O898        C908   1.280       .  A
O899       Ni906   1.917       .  S
O899        C909   1.281       .  A
O900       Ni906   1.918       .  S
O900        C910   1.279       .  A
O901       Ni906   1.922       .  S
O901        C911   1.281       .  A
O902       Ni907   1.931       .  S
O902        C911   1.285       .  A
O903       Ni907   1.930       .  S
O903        C910   1.282       .  A
O904       Ni907   1.933       .  S
O904        C909   1.283       .  A
O905       Ni907   1.933       .  S
O905        C908   1.283       .  A
Ni906      Ni907   2.389       .  S
C908       C1473   1.446       .  S
C909       C1602   1.480       .  S
C910       C1477   1.442       .  S
C911       C1914   1.487       .  S
O912       Ni920   1.929       .  S
O912        C922   1.283       .  A
O913       Ni920   1.929       .  S
O913        C923   1.286       .  A
O914       Ni920   1.911       .  S
O914        C924   1.277       .  A
O915       Ni920   1.902       .  S
O915        C925   1.278       .  A
O916       Ni921   1.925       .  S
O916        C925   1.283       .  A
O917       Ni921   1.929       .  S
O917        C924   1.283       .  A
O918       Ni921   1.909       .  S
O918        C923   1.277       .  A
O919       Ni921   1.907       .  S
O919        C922   1.277       .  A
Ni920      Ni921   2.392       .  S
C922       C1484   1.436       .  S
C923       C1790   1.476       .  S
C924       C1472   1.438       .  S
C925       C1714   1.471       .  S
C926        C927   1.391       .  A
C926        C931   1.400       .  A
C926       C1465   1.425       .  S
C927        C928   1.392       .  A
C927        H932   1.086       .  S
C928        C929   1.397       .  A
C928       C1469   1.423       .  S
C929        C930   1.399       .  A
C929        H933   1.085       .  S
C930        C931   1.400       .  A
C930       C1467   1.432       .  S
C931        H934   1.085       .  S
O935       Ni943   1.891       .  S
O935        C945   1.273       .  A
O936       Ni943   1.886       .  S
O936        C946   1.274       .  A
O937       Ni943   1.928       .  S
O937        C947   1.283       .  A
O938       Ni943   1.924       .  S
O938        C948   1.283       .  A
O939       Ni944   1.896       .  S
O939        C948   1.276       .  A
O940       Ni944   1.905       .  S
O940        C947   1.276       .  A
O941       Ni944   1.919       .  S
O941        C946   1.283       .  A
O942       Ni944   1.920       .  S
O942        C945   1.281       .  A
Ni943      Ni944   2.396       .  S
C945       C1466   1.419       .  S
C946       C1950   1.455       .  S
C947       C1476   1.434       .  S
C948       C1510   1.462       .  S
O949       Ni957   1.922       .  S
O949        C959   1.281       .  A
O950       Ni957   1.927       .  S
O950        C960   1.283       .  A
O951       Ni957   1.915       .  S
O951        C961   1.279       .  A
O952       Ni957   1.910       .  S
O952        C962   1.277       .  A
O953       Ni958   1.929       .  S
O953        C962   1.285       .  A
O954       Ni958   1.930       .  S
O954        C961   1.283       .  A
O955       Ni958   1.891       .  S
O955        C960   1.275       .  A
O956       Ni958   1.899       .  S
O956        C959   1.275       .  A
Ni957      Ni958   2.393       .  S
C959       C1488   1.426       .  S
C960       C1694   1.460       .  S
C961       C1480   1.441       .  S
C962       C1782   1.472       .  S
O963       Ni971   1.912       .  S
O963        C973   1.280       .  A
O964       Ni971   1.913       .  S
O964        C974   1.279       .  A
O965       Ni971   1.927       .  S
O965        C975   1.282       .  A
O966       Ni971   1.921       .  S
O966        C976   1.282       .  A
O967       Ni972   1.923       .  S
O967        C976   1.283       .  A
O968       Ni972   1.924       .  S
O968        C975   1.281       .  A
O969       Ni972   1.890       .  S
O969        C974   1.276       .  A
O970       Ni972   1.897       .  S
O970        C973   1.274       .  A
Ni971      Ni972   2.394       .  S
C973       C1470   1.418       .  S
C974       C1493   1.449       .  S
C975       C1481   1.445       .  S
C976       C1461   1.479       .  S
O977       Ni985   1.907       .  S
O977        C987   1.278       .  A
O978       Ni985   1.907       .  S
O978        C988   1.278       .  A
O979       Ni985   1.915       .  S
O979        C989   1.280       .  A
O980       Ni985   1.908       .  S
O980        C990   1.280       .  A
O981       Ni986   1.911       .  S
O981        C990   1.280       .  A
O982       Ni986   1.915       .  S
O982        C989   1.279       .  A
O983       Ni986   1.912       .  S
O983        C988   1.282       .  A
O984       Ni986   1.915       .  S
O984        C987   1.279       .  A
Ni985      Ni986   2.395       .  S
C987       C1468   1.426       .  S
C988       C1649   1.465       .  S
C989       C1486   1.431       .  S
C990       C1581   1.464       .  S
C991        C992   1.408       .  A
C991        C996   1.401       .  A
C991       C1459   1.445       .  S
C992        C993   1.406       .  A
C992        H997   1.084       .  S
C993        C994   1.399       .  A
C993       C1457   1.444   1_455  S
C994        C995   1.397       .  A
C994        H998   1.085       .  S
C995        C996   1.401       .  A
C995       C1455   1.437       .  S
C996        H999   1.085       .  S
O1000     Ni1008   1.923       .  S
O1000      C1010   1.281       .  A
O1001     Ni1008   1.921       .  S
O1001      C1011   1.280       .  A
O1002     Ni1008   1.920       .  S
O1002      C1012   1.280       .  A
O1003     Ni1008   1.922       .  S
O1003      C1013   1.281       .  A
O1004     Ni1009   1.924       .  S
O1004      C1013   1.283       .  A
O1005     Ni1009   1.930       .  S
O1005      C1012   1.282       .  A
O1006     Ni1009   1.904       .  S
O1006      C1011   1.280       .  A
O1007     Ni1009   1.908       .  S
O1007      C1010   1.277       .  A
Ni1008    Ni1009   2.391       .  S
C1010      C1456   1.432       .  S
C1011      C1826   1.469       .  S
C1012      C1453   1.443       .  S
C1013      C1682   1.483       .  S
C1014      C1015   1.393       .  A
C1014      C1019   1.396       .  A
C1014      C1451   1.421       .  S
C1015      C1016   1.392       .  A
C1015      H1020   1.085       .  S
C1016      C1017   1.402       .  A
C1016      C1449   1.428       .  S
C1017      C1018   1.401       .  A
C1017      H1021   1.084       .  S
C1018      C1019   1.397       .  A
C1018      C1447   1.432       .  S
C1019      H1022   1.085       .  S
C1023      C1024   1.406       .  A
C1023      C1028   1.400       .  A
C1023      C1443   1.441       .  S
C1024      C1025   1.404       .  A
C1024      H1029   1.084       .  S
C1025      C1026   1.403       .  A
C1025      C1454   1.448       .  S
C1026      C1027   1.403       .  A
C1026      H1030   1.085       .  S
C1027      C1028   1.399       .  A
C1027      C1445   1.440       .  S
C1028      H1031   1.085       .  S
O1032     Ni1040   1.905       .  S
O1032      C1042   1.276       .  A
O1033     Ni1040   1.903       .  S
O1033      C1043   1.278       .  A
O1034     Ni1040   1.927       .  S
O1034      C1044   1.283       .  A
O1035     Ni1040   1.929       .  S
O1035      C1045   1.283       .  A
O1036     Ni1041   1.907       .  S
O1036      C1045   1.277       .  A
O1037     Ni1041   1.900       .  S
O1037      C1044   1.277       .  A
O1038     Ni1041   1.918       .  S
O1038      C1043   1.281       .  A
O1039     Ni1041   1.918       .  S
O1039      C1042   1.281       .  A
Ni1040    Ni1041   2.394       .  S
C1042      C1448   1.427       .  S
C1043      C1933   1.464       .  S
C1044      C1765   1.467       .  S
C1045      C1444   1.436       .  S
C1046      C1047   1.395       .  A
C1046      C1051   1.401       .  A
C1046      C1440   1.432       .  S
C1047      C1048   1.394       .  A
C1047      H1052   1.085       .  S
C1048      C1049   1.402       .  A
C1048      C1442   1.432       .  S
C1049      C1050   1.401       .  A
C1049      H1053   1.085       .  S
C1050      C1051   1.402       .  A
C1050      C1437   1.440   1_455  S
C1051      H1054   1.085   1_455  S
O1055     Ni1063   1.911       .  S
O1055      C1065   1.278       .  A
O1056     Ni1063   1.907       .  S
O1056      C1066   1.277       .  A
O1057     Ni1063   1.908       .  S
O1057      C1067   1.277       .  A
O1058     Ni1063   1.910       .  S
O1058      C1068   1.281       .  A
O1059     Ni1064   1.916       .  S
O1059      C1068   1.279       .  A
O1060     Ni1064   1.916       .  S
O1060      C1067   1.280       .  A
O1061     Ni1064   1.924       .  S
O1061      C1066   1.283       .  A
O1062     Ni1064   1.924       .  S
O1062      C1065   1.282       .  A
Ni1063    Ni1064   2.394       .  S
C1065      C1446   1.435       .  S
C1066      C1434   1.465       .  S
C1067      C1439   1.427       .  S
C1068      C1805   1.465       .  S
O1069     Ni1077   1.926       .  S
O1069      C1079   1.282       .  A
O1070     Ni1077   1.925       .  S
O1070      C1080   1.283       .  A
O1071     Ni1077   1.913       .  S
O1071      C1081   1.281       .  A
O1072     Ni1077   1.924       .  S
O1072      C1082   1.281       .  A
O1073     Ni1078   1.918       .  S
O1073      C1082   1.280       .  A
O1074     Ni1078   1.915       .  S
O1074      C1081   1.280       .  A
O1075     Ni1078   1.905       .  S
O1075      C1080   1.278       .  A
O1076     Ni1078   1.909       .  S
O1076      C1079   1.278       .  A
Ni1077    Ni1078   2.393       .  S
C1079      C1438   1.434       .  S
C1080      C1701   1.466       .  S
C1081      C1514   1.471       .  S
C1082      C1458   1.439       .  S
O1083     Ni1091   1.936       .  S
O1083      C1093   1.285       .  A
O1084     Ni1091   1.938       .  S
O1084      C1094   1.286       .  A
O1085     Ni1091   1.901       .  S
O1085      C1095   1.276       .  A
O1086     Ni1091   1.902       .  S
O1086      C1096   1.275       .  A
O1087     Ni1092   1.904       .  S
O1087      C1096   1.282       .  A
O1088     Ni1092   1.906       .  S
O1088      C1095   1.278       .  A
O1089     Ni1092   1.899       .  S
O1089      C1094   1.276       .  A
O1090     Ni1092   1.907       .  S
O1090      C1093   1.276       .  A
Ni1091    Ni1092   2.395       .  S
C1093      C1460   1.439       .  S
C1094      C1710   1.471       .  S
C1095      C1452   1.416       .  S
C1096      C1497   1.457       .  S
O1097     Ni1105   1.923       .  S
O1097      C1107   1.282       .  A
O1098     Ni1105   1.926       .  S
O1098      C1108   1.286       .  A
O1099     Ni1105   1.892       .  S
O1099      C1109   1.272       .  A
O1100     Ni1105   1.895       .  S
O1100      C1110   1.274       .  A
O1101     Ni1106   1.921       .  S
O1101      C1110   1.282       .  A
O1102     Ni1106   1.925       .  S
O1102      C1109   1.285       .  A
O1103     Ni1106   1.896       .  S
O1103      C1108   1.273       .  A
O1104     Ni1106   1.898       .  S
O1104      C1107   1.275       .  A
Ni1105    Ni1106   2.396       .  S
C1107      C1441   1.425       .  S
C1108      C1750   1.462       .  S
C1109      C1730   1.455       .  S
C1110      C1450   1.422       .  S
C1111      C1112   1.397       .  A
C1111      C1116   1.396       .  A
C1111      C1429   1.427       .  S
C1112      C1113   1.398       .  A
C1112      H1117   1.085       .  S
C1113      C1114   1.397       .  A
C1113      C1431   1.427       .  S
C1114      C1115   1.396       .  A
C1114      H1118   1.085       .  S
C1115      C1116   1.396       .  A
C1115      C1428   1.426       .  S
C1116      H1119   1.085       .  S
O1120     Ni1128   1.933       .  S
O1120      C1130   1.284       .  A
O1121     Ni1128   1.934       .  S
O1121      C1131   1.284       .  A
O1122     Ni1128   1.895       .  S
O1122      C1132   1.276       .  A
O1123     Ni1128   1.904       .  S
O1123      C1133   1.276       .  A
O1124     Ni1129   1.911       .  S
O1124      C1133   1.279       .  A
O1125     Ni1129   1.910       .  S
O1125      C1132   1.280       .  A
O1126     Ni1129   1.898       .  S
O1126      C1131   1.278       .  A
O1127     Ni1129   1.908       .  S
O1127      C1130   1.277       .  A
Ni1128    Ni1129   2.395       .  S
C1130      C1425   1.438       .  S
C1131      C1910   1.469       .  S
C1132      C1930   1.453       .  S
C1133      C1430   1.422       .  S
C1134      C1135   1.407       .  A
C1134      C1139   1.403       .  A
C1134      C1421   1.448       .  S
C1135      C1136   1.407       .  A
C1135      H1140   1.084       .  S
C1136      C1137   1.399       .  A
C1136      C1426   1.444       .  S
C1137      C1138   1.398       .  A
C1137      H1141   1.085       .  S
C1138      C1139   1.403       .  A
C1138      C1424   1.439       .  S
C1139      H1142   1.085       .  S
C1143      C1144   1.409       .  A
C1143      C1148   1.403       .  A
C1143      C1415   1.450       .  S
C1144      C1145   1.409       .  A
C1144      H1149   1.084       .  S
C1145      C1146   1.400       .  A
C1145      C1418   1.446       .  S
C1146      C1147   1.398       .  A
C1146      H1150   1.085       .  S
C1147      C1148   1.401       .  A
C1147      C1419   1.440   1_655  S
C1148      H1151   1.085       .  S
C1152      C1153   1.396       .  A
C1152      C1157   1.406       .  A
C1152      C1409   1.441       .  S
C1153      C1154   1.397       .  A
C1153      H1158   1.085       .  S
C1154      C1155   1.402       .  A
C1154      C1412   1.437       .  S
C1155      C1156   1.405       .  A
C1155      H1159   1.084       .  S
C1156      C1157   1.406       .  A
C1156      C1413   1.448   1_655  S
C1157      H1160   1.084       .  S
O1161     Ni1169   1.913       .  S
O1161      C1171   1.278       .  A
O1162     Ni1169   1.911       .  S
O1162      C1172   1.279       .  A
O1163     Ni1169   1.930       .  S
O1163      C1173   1.283       .  A
O1164     Ni1169   1.930       .  S
O1164      C1174   1.282       .  A
O1165     Ni1170   1.919       .  S
O1165      C1174   1.280       .  A
O1166     Ni1170   1.909       .  S
O1166      C1173   1.279       .  A
O1167     Ni1170   1.922       .  S
O1167      C1172   1.282       .  A
O1168     Ni1170   1.923       .  S
O1168      C1171   1.281       .  A
Ni1169    Ni1170   2.392       .  S
C1171      C1420   1.435       .  S
C1172      C1798   1.470       .  S
C1173      C1822   1.474       .  S
C1174      C1414   1.443       .  S
O1175     Ni1183   1.934       .  S
O1175      C1185   1.284       .  A
O1176     Ni1183   1.945       .  S
O1176      C1186   1.287       .  A
O1177     Ni1183   1.919       .  S
O1177      C1187   1.279       .  A
O1178     Ni1183   1.916       .  S
O1178      C1188   1.278       .  A
O1179     Ni1184   1.926       .  S
O1179      C1188   1.285       .  A
O1180     Ni1184   1.930       .  S
O1180      C1187   1.283       .  A
O1181     Ni1184   1.900       .  S
O1181      C1186   1.276       .  A
O1182     Ni1184   1.902       .  S
O1182      C1185   1.275       .  A
Ni1183    Ni1184   2.391       .  S
C1185      C1410   1.435       .  S
C1186      C1506   1.476       .  S
C1187      C1422   1.443       .  S
C1188      C1406   1.475       .  S
O1189     Ni1197   1.908       .  S
O1189      C1199   1.278       .  A
O1190     Ni1197   1.909       .  S
O1190      C1200   1.278       .  A
O1191     Ni1197   1.931       .  S
O1191      C1201   1.283       .  A
O1192     Ni1197   1.929       .  S
O1192      C1202   1.282       .  A
O1193     Ni1198   1.909       .  S
O1193      C1202   1.282       .  A
O1194     Ni1198   1.916       .  S
O1194      C1201   1.278       .  A
O1195     Ni1198   1.899       .  S
O1195      C1200   1.280       .  A
O1196     Ni1198   1.907       .  S
O1196      C1199   1.277       .  A
Ni1197    Ni1198   2.393       .  S
C1199      C1432   1.422       .  S
C1200      C1742   1.462       .  S
C1201      C1417   1.442       .  S
C1202      C1593   1.479       .  S
O1203     Ni1211   1.926       .  S
O1203      C1213   1.282       .  A
O1204     Ni1211   1.928       .  S
O1204      C1214   1.285       .  A
O1205     Ni1211   1.923       .  S
O1205      C1215   1.280       .  A
O1206     Ni1211   1.915       .  S
O1206      C1216   1.279       .  A
O1207     Ni1212   1.923       .  S
O1207      C1216   1.283       .  A
O1208     Ni1212   1.928       .  S
O1208      C1215   1.282       .  A
O1209     Ni1212   1.912       .  S
O1209      C1214   1.278       .  A
O1210     Ni1212   1.910       .  S
O1210      C1213   1.277       .  A
Ni1211    Ni1212   2.391       .  S
C1213      C1423   1.434       .  S
C1214      C1670   1.477       .  S
C1215      C1416   1.445       .  S
C1216      C1686   1.474       .  S
O1217     Ni1225   1.909       .  S
O1217      C1227   1.278       .  A
O1218     Ni1225   1.908       .  S
O1218      C1228   1.277       .  A
O1219     Ni1225   1.917       .  S
O1219      C1229   1.280       .  A
O1220     Ni1225   1.918       .  S
O1220      C1230   1.281       .  A
O1221     Ni1226   1.906       .  S
O1221      C1230   1.279       .  A
O1222     Ni1226   1.914       .  S
O1222      C1229   1.278       .  A
O1223     Ni1226   1.903       .  S
O1223      C1228   1.281       .  A
O1224     Ni1226   1.906       .  S
O1224      C1227   1.277       .  A
Ni1225    Ni1226   2.395       .  S
C1227      C1427   1.421       .  S
C1228      C1502   1.457       .  S
C1229      C1411   1.432       .  S
C1230      C1609   1.467       .  S
O1231     Ni1237   1.919   1_455  S
O1231      C1252   1.269       .  A
O1232     Ni1255   1.908       .  S
O1232      C1241   1.271       .  A
O1233     Ni1237   1.901       .  S
O1233     Ni1255   1.899       .  S
O1233     Ni1249   1.904   1_655  S
O1233      H1256   0.966       .  S
C1234      O1251   1.268       .  A
C1234      O1243   1.279       .  A
C1234      C1402   1.475       .  S
O1235     Ni1254   1.936   1_655  S
O1235      C1241   1.276       .  A
O1236     Ni1254   1.891   1_655  S
O1236      C1238   1.267       .  A
Ni1237     O1240   1.904       .  S
Ni1237     O1242   1.906   1_655  S
C1238      O1248   1.282       .  A
C1238      C1834   1.472       .  S
O1239     Ni1255   1.945       .  S
O1239      C1245   1.283       .  A
O1240      C1245   1.272       .  A
C1241      C1462   1.482       .  S
O1242      C1244   1.268       .  A
O1243     Ni1254   1.937       .  S
C1244      O1250   1.269       .  A
C1244      C1433   1.467       .  S
C1245      C1405   1.475       .  S
H1246      O1247   0.966       .  S
O1247     Ni1255   1.918   1_455  S
O1247     Ni1249   1.905       .  S
O1247     Ni1254   1.895       .  S
O1248     Ni1249   1.960   1_655  S
Ni1249     O1253   1.911       .  S
Ni1249     O1251   1.901       .  S
O1250     Ni1255   1.928   1_455  S
C1252      O1253   1.270       .  A
C1252      C1546   1.476       .  S
C1257      C1258   1.400       .  A
C1257      C1262   1.397       .  A
C1257      C1400   1.434   1_455  S
C1258      C1259   1.399       .  A
C1258      H1263   1.085       .  S
C1259      C1260   1.406       .  A
C1259      C1398   1.443   1_554  S
C1260      C1261   1.405       .  A
C1260      H1264   1.084       .  S
C1261      C1262   1.398       .  A
C1261      C1395   1.440       .  S
C1262      H1265   1.085       .  S
O1266     Ni1274   1.910       .  S
O1266      C1276   1.277       .  A
O1267     Ni1274   1.918       .  S
O1267      C1277   1.280       .  A
O1268     Ni1274   1.940       .  S
O1268      C1278   1.284       .  A
O1269     Ni1274   1.935       .  S
O1269      C1279   1.286       .  A
O1270     Ni1275   1.935       .  S
O1270      C1279   1.283       .  A
O1271     Ni1275   1.938       .  S
O1271      C1278   1.283       .  A
O1272     Ni1275   1.930       .  S
O1272      C1277   1.285       .  A
O1273     Ni1275   1.927       .  S
O1273      C1276   1.282       .  A
Ni1274    Ni1275   2.388       .  S
C1276      C1396   1.435       .  S
C1277      C1809   1.483       .  S
C1278      C1394   1.462       .  S
C1279      C1726   1.493       .  S
C1280      C1281   1.400       .  A
C1280      C1285   1.402       .  A
C1280      C1392   1.436   1_545  S
C1281      C1282   1.397       .  A
C1281      H1286   1.085       .  S
C1282      C1283   1.396       .  A
C1282      C1389   1.431   1_455  S
C1283      C1284   1.396       .  A
C1283      H1287   1.085       .  S
C1284      C1285   1.402       .  A
C1284      C1388   1.433       .  S
C1285      H1288   1.084       .  S
C1289      C1290   1.411       .  A
C1289      C1294   1.403       .  A
C1289      C1385   1.457       .  S
C1290      C1291   1.412       .  A
C1290      H1295   1.084       .  S
C1291      C1292   1.412       .  A
C1291      C1393   1.466       .  S
C1292      C1293   1.412       .  A
C1292      H1296   1.084       .  S
C1293      C1294   1.403       .  A
C1293      C1383   1.458       .  S
C1294      H1297   1.085       .  S
O1298     Ni1306   1.920       .  S
O1298      C1308   1.281       .  A
O1299     Ni1306   1.925       .  S
O1299      C1309   1.283       .  A
O1300     Ni1306   1.922       .  S
O1300      C1310   1.279       .  A
O1301     Ni1306   1.917       .  S
O1301      C1311   1.280       .  A
O1302     Ni1307   1.940       .  S
O1302      C1311   1.285       .  A
O1303     Ni1307   1.941       .  S
O1303      C1310   1.286       .  A
O1304     Ni1307   1.901       .  S
O1304      C1309   1.277       .  A
O1305     Ni1307   1.904       .  S
O1305      C1308   1.276       .  A
Ni1306    Ni1307   2.391       .  S
C1308      C1387   1.428       .  S
C1309      C1786   1.471       .  S
C1310      C1384   1.453       .  S
C1311      C1489   1.479       .  S
C1312      C1313   1.406       .  A
C1312      C1317   1.399       .  A
C1312      C1382   1.443   1_554  S
C1313      C1314   1.405       .  A
C1313      H1318   1.084       .  S
C1314      C1315   1.405       .  A
C1314      C1380   1.449   1_545  S
C1315      C1316   1.404       .  A
C1315      H1319   1.084       .  S
C1316      C1317   1.400       .  A
C1316      C1378   1.441       .  S
C1317      H1320   1.085       .  S
O1321     Ni1329   1.920       .  S
O1321      C1331   1.281       .  A
O1322     Ni1329   1.913       .  S
O1322      C1332   1.283       .  A
O1323     Ni1329   1.919       .  S
O1323      C1333   1.281       .  A
O1324     Ni1329   1.925       .  S
O1324      C1334   1.280       .  A
O1325     Ni1330   1.937       .  S
O1325      C1334   1.284       .  A
O1326     Ni1330   1.938       .  S
O1326      C1333   1.286       .  A
O1327     Ni1330   1.922       .  S
O1327      C1332   1.279       .  A
O1328     Ni1330   1.916       .  S
O1328      C1331   1.279       .  A
Ni1329    Ni1330   2.390       .  S
C1331      C1377   1.436       .  S
C1332      C1906   1.475       .  S
C1333      C1646   1.487       .  S
C1334      C1386   1.452       .  S
O1335     Ni1343   1.935       .  S
O1335      C1345   1.284       .  A
O1336     Ni1343   1.933       .  S
O1336      C1346   1.285       .  A
O1337     Ni1343   1.904       .  S
O1337      C1347   1.276       .  A
O1338     Ni1343   1.897       .  S
O1338      C1348   1.276       .  A
O1339     Ni1344   1.932       .  S
O1339      C1348   1.285       .  A
O1340     Ni1344   1.935       .  S
O1340      C1347   1.284       .  A
O1341     Ni1344   1.901       .  S
O1341      C1346   1.277       .  A
O1342     Ni1344   1.904       .  S
O1342      C1345   1.276       .  A
Ni1343    Ni1344   2.392       .  S
C1345      C1397   1.437       .  S
C1346      C1706   1.471       .  S
C1347      C1381   1.437       .  S
C1348      C1401   1.469       .  S
O1349     Ni1357   1.933       .  S
O1349      C1359   1.283       .  A
O1350     Ni1357   1.938       .  S
O1350      C1360   1.285       .  A
O1351     Ni1357   1.914       .  S
O1351      C1361   1.279       .  A
O1352     Ni1357   1.918       .  S
O1352      C1362   1.280       .  A
O1353     Ni1358   1.923       .  S
O1353      C1362   1.283       .  A
O1354     Ni1358   1.917       .  S
O1354      C1361   1.279       .  A
O1355     Ni1358   1.912       .  S
O1355      C1360   1.279       .  A
O1356     Ni1358   1.917       .  S
O1356      C1359   1.279       .  A
Ni1357    Ni1358   2.391       .  S
C1359      C1379   1.444       .  S
C1360      C1666   1.480       .  S
C1361      C1391   1.431       .  S
C1362      C1746   1.477       .  S
O1363     Ni1371   1.903       .  S
O1363      C1373   1.276       .  A
O1364     Ni1371   1.897       .  S
O1364      C1374   1.276       .  A
O1365     Ni1371   1.906       .  S
O1365      C1375   1.282       .  A
O1366     Ni1371   1.911       .  S
O1366      C1376   1.278       .  A
O1367     Ni1372   1.911       .  S
O1367      C1376   1.279       .  A
O1368     Ni1372   1.909       .  S
O1368      C1375   1.276       .  A
O1369     Ni1372   1.927       .  S
O1369      C1374   1.284       .  A
O1370     Ni1372   1.923       .  S
O1370      C1373   1.281       .  A
Ni1371    Ni1372   2.395       .  S
C1373      C1399   1.428       .  S
C1374      C1598   1.465       .  S
C1375      C1577   1.460       .  S
C1376      C1390   1.426       .  S
C1377      C1378   1.207       .  T
C1379      C1380   1.211       .  T
C1381      C1382   1.208       .  T
C1383      C1384   1.217       .  T
C1385      C1386   1.216       .  T
C1387      C1388   1.202       .  T
C1389      C1390   1.200       .  T
C1391      C1392   1.203       .  T
C1393      C1394   1.222       .  T
C1395      C1396   1.206       .  T
C1397      C1398   1.208       .  T
C1399      C1400   1.202       .  T
C1401      C1402   1.339       .  D
C1401      H1403   1.087       .  S
C1402      H1404   1.087       .  S
C1405      C1406   1.337       .  D
C1405      H1407   1.088       .  S
C1406      H1408   1.086       .  S
C1409      C1410   1.206       .  T
C1411      C1412   1.204       .  T
C1413      C1414   1.211       .  T
C1415      C1416   1.212       .  T
C1417      C1418   1.210       .  T
C1419      C1420   1.206       .  T
C1421      C1422   1.211       .  T
C1423      C1424   1.206       .  T
C1425      C1426   1.208       .  T
C1427      C1428   1.198       .  T
C1429      C1430   1.198       .  T
C1431      C1432   1.198       .  T
C1433      C1434   1.337       .  D
C1433      H1435   1.086       .  S
C1434      H1436   1.088       .  S
C1437      C1438   1.206       .  T
C1439      C1440   1.201       .  T
C1441      C1442   1.201       .  T
C1443      C1444   1.207       .  T
C1445      C1446   1.206       .  T
C1447      C1448   1.201       .  T
C1449      C1450   1.199       .  T
C1451      C1452   1.195       .  T
C1453      C1454   1.211       .  T
C1455      C1456   1.204       .  T
C1457      C1458   1.208       .  T
C1459      C1460   1.209       .  T
C1461      C1462   1.349       .  D
C1461      H1463   1.087       .  S
C1462      H1464   1.086       .  S
C1465      C1466   1.197       .  T
C1467      C1468   1.201       .  T
C1469      C1470   1.196       .  T
C1471      C1472   1.208       .  T
C1473      C1474   1.213       .  T
C1475      C1476   1.205       .  T
C1477      C1478   1.210       .  T
C1479      C1480   1.210   1_545  T
C1481      C1482   1.212       .  T
C1483      C1484   1.207       .  T
C1485      C1486   1.204       .  T
C1487      C1488   1.201   1_545  T
C1489      C1490   1.347       .  D
C1489      H1491   1.087       .  S
C1490      H1492   1.086       .  S
C1493      C1494   1.342       .  D
C1493      H1495   1.089       .  S
C1494      H1496   1.086       .  S
C1497      C1498   1.335       .  D
C1497      H1499   1.087       .  S
C1498      H1500   1.088       .  S
C1501      C1502   1.337       .  D
C1501      H1503   1.088       .  S
C1502      H1504   1.087       .  S
C1505      C1506   1.345       .  D
C1505      H1507   1.086       .  S
C1506      H1508   1.088       .  S
C1509      C1510   1.340       .  D
C1509      H1511   1.086       .  S
C1510      H1512   1.088       .  S
C1513      C1514   1.343       .  D
C1513      H1515   1.087       .  S
C1514      H1516   1.087       .  S
C1517      C1518   1.342       .  D
C1517      H1519   1.088       .  S
C1518      H1520   1.086       .  S
C1521      C1522   1.204       .  T
C1523      C1524   1.213       .  T
C1525      C1526   1.210       .  T
C1527      C1528   1.205       .  T
C1529      C1530   1.206       .  T
C1531      C1532   1.202       .  T
C1533      C1534   1.207       .  T
C1535      C1536   1.205       .  T
C1537      C1538   1.209       .  T
C1539      C1540   1.204       .  T
C1541      C1542   1.205       .  T
C1543      C1544   1.208       .  T
C1545      C1546   1.352       .  D
C1545      H1547   1.087       .  S
C1546      H1548   1.086       .  S
C1549      C1550   1.347       .  D
C1549      H1551   1.087       .  S
C1550      H1552   1.087       .  S
C1553      C1554   1.207       .  T
C1555      C1556   1.207       .  T
C1557      C1558   1.213       .  T
C1559      C1560   1.205       .  T
C1561      C1562   1.209       .  T
C1563      C1564   1.205       .  T
C1565      C1566   1.204       .  T
C1567      C1568   1.203       .  T
C1569      C1570   1.209       .  T
C1571      C1572   1.206       .  T
C1573      C1574   1.211       .  T
C1575      C1576   1.209       .  T
C1577      C1578   1.336       .  D
C1577      H1579   1.086       .  S
C1578      H1580   1.089       .  S
C1581      C1582   1.345       .  D
C1581      H1583   1.087       .  S
C1582      H1584   1.086       .  S
C1585      C1586   1.346       .  D
C1585      H1587   1.086       .  S
C1586      H1588   1.087       .  S
C1589      C1590   1.338       .  D
C1589      H1591   1.087       .  S
C1590      H1592   1.088       .  S
C1593      C1594   1.345       .  D
C1593      H1595   1.086       .  S
C1594      H1596   1.088       .  S
C1597      C1598   1.343       .  D
C1597      H1599   1.086       .  S
C1598      H1600   1.087       .  S
C1601      C1602   1.349       .  D
C1601      H1603   1.086       .  S
C1602      H1604   1.087       .  S
C1605      C1606   1.338       .  D
C1605      H1607   1.086       .  S
C1606      H1608   1.088       .  S
C1609      C1610   1.343       .  D
C1609      H1611   1.087       .  S
C1610      H1612   1.087       .  S
C1613      C1614   1.342       .  D
C1613      H1615   1.087       .  S
C1614      H1616   1.086       .  S
C1617      C1618   1.210       .  T
C1619      C1620   1.205       .  T
C1621      C1622   1.207       .  T
C1623      C1624   1.207       .  T
C1625      C1626   1.339       .  D
C1625      H1627   1.086       .  S
C1626      H1628   1.088       .  S
C1629      C1630   1.208       .  T
C1631      C1632   1.205       .  T
C1633      C1634   1.201       .  T
C1635      C1636   1.204       .  T
C1637      C1638   1.209       .  T
C1639      C1640   1.194       .  T
C1641      C1642   1.198       .  T
C1643      C1644   1.198       .  T
C1645      C1646   1.350       .  D
C1645      H1647   1.086       .  S
C1646      H1648   1.087       .  S
C1649      C1650   1.339       .  D
C1649      H1651   1.088       .  S
C1650      H1652   1.087       .  S
C1653      C1654   1.343       .  D
C1653      H1655   1.086       .  S
C1654      H1656   1.087       .  S
C1657      C1658   1.342       .  D
C1657      H1659   1.088       .  S
C1658      H1660   1.087       .  S
C1661      C1662   1.349       .  D
C1661      H1663   1.087       .  S
C1662      H1664   1.086       .  S
C1665      C1666   1.345       .  D
C1665      H1667   1.086       .  S
C1666      H1668   1.087       .  S
C1669      C1670   1.341       .  D
C1669      H1671   1.086       .  S
C1670      H1672   1.088       .  S
C1673      C1674   1.347       .  D
C1673      H1675   1.087       .  S
C1674      H1676   1.086       .  S
C1677      C1678   1.345       .  D
C1677      H1679   1.086       .  S
C1678      H1680   1.087       .  S
C1681      C1682   1.345       .  D
C1681      H1683   1.087       .  S
C1682      H1684   1.087       .  S
C1685      C1686   1.352       .  D
C1685      H1687   1.086       .  S
C1686      H1688   1.087       .  S
C1689      C1690   1.345       .  D
C1689      H1691   1.086       .  S
C1690      H1692   1.087       .  S
C1693      C1694   1.341       .  D
C1693      H1695   1.086       .  S
C1694      H1696   1.087       .  S
C1697      C1698   1.341       .  D
C1697      H1699   1.088       .  S
C1698      H1700   1.086       .  S
C1701      C1702   1.345       .  D
C1701      H1703   1.088       .  S
C1702      H1704   1.086       .  S
C1705      C1706   1.341       .  D
C1705      H1707   1.086       .  S
C1706      H1708   1.088       .  S
C1709      C1710   1.340       .  D
C1709      H1711   1.086       .  S
C1710      H1712   1.088       .  S
C1713      C1714   1.349       .  D
C1713      H1715   1.087       .  S
C1714      H1716   1.087       .  S
C1717      C1718   1.340       .  D
C1717      H1719   1.086       .  S
C1718      H1720   1.089       .  S
C1721      C1722   1.343       .  D
C1721      H1723   1.088       .  S
C1722      H1724   1.086       .  S
C1725      C1726   1.357       .  D
C1725      H1727   1.086       .  S
C1726      H1728   1.087       .  S
C1729      C1730   1.334       .  D
C1729      H1731   1.088       .  S
C1730      H1732   1.087       .  S
C1733      C1734   1.345       .  D
C1733      H1735   1.086       .  S
C1734      H1736   1.087       .  S
C1737      C1738   1.339       .  D
C1737      H1739   1.088       .  S
C1738      H1740   1.087       .  S
C1741      C1742   1.337       .  D
C1741      H1743   1.087       .  S
C1742      H1744   1.087       .  S
C1745      C1746   1.346       .  D
C1745      H1747   1.086       .  S
C1746      H1748   1.087       .  S
C1749      C1750   1.334       .  D
C1749      H1751   1.088       .  S
C1750      H1752   1.087       .  S
C1753      C1754   1.348       .  D
C1753      H1755   1.086       .  S
C1754      H1756   1.087       .  S
C1757      C1758   1.343       .  D
C1757      H1759   1.087       .  S
C1758      H1760   1.086       .  S
C1761      C1762   1.339       .  D
C1761      H1763   1.087       .  S
C1762      H1764   1.087       .  S
C1765      C1766   1.343       .  D
C1765      H1767   1.087       .  S
C1766      H1768   1.086       .  S
C1769      C1770   1.345       .  D
C1769      H1771   1.086       .  S
C1770      H1772   1.088       .  S
C1773      C1774   1.341       .  D
C1773      H1775   1.088       .  S
C1774      H1776   1.086       .  S
C1777      C1778   1.341       .  D
C1777      H1779   1.088       .  S
C1778      H1780   1.086       .  S
C1781      C1782   1.340       .  D
C1781      H1783   1.088       .  S
C1782      H1784   1.086       .  S
C1785      C1786   1.348       .  D
C1785      H1787   1.087       .  S
C1786      H1788   1.087       .  S
C1789      C1790   1.339       .  D
C1789      H1791   1.086       .  S
C1790      H1792   1.088       .  S
C1793      C1794   1.346       .  D
C1793      H1795   1.087       .  S
C1794      H1796   1.087       .  S
C1797      C1798   1.345       .  D
C1797      H1799   1.086       .  S
C1798      H1800   1.087       .  S
C1801      C1802   1.347       .  D
C1801      H1803   1.086       .  S
C1802      H1804   1.088       .  S
C1805      C1806   1.350       .  D
C1805      H1807   1.087       .  S
C1806      H1808   1.086       .  S
C1809      C1810   1.343       .  D
C1809      H1811   1.088       .  S
C1810      H1812   1.086       .  S
C1813      C1814   1.347       .  D
C1813      H1815   1.086       .  S
C1814      H1816   1.087       .  S
C1817      C1818   1.343       .  D
C1817      H1819   1.086       .  S
C1818      H1820   1.088       .  S
C1821      C1822   1.348       .  D
C1821      H1823   1.086       .  S
C1822      H1824   1.087       .  S
C1825      C1826   1.343       .  D
C1825      H1827   1.088       .  S
C1826      H1828   1.086       .  S
C1829      C1830   1.340       .  D
C1829      H1831   1.087       .  S
C1830      H1832   1.087       .  S
C1833      C1834   1.346       .  D
C1833      H1835   1.088       .  S
C1834      H1836   1.086       .  S
C1837      C1838   1.343       .  D
C1837      H1839   1.086       .  S
C1838      H1840   1.087       .  S
C1841      C1842   1.355       .  D
C1841      H1843   1.087       .  S
C1842      H1844   1.086       .  S
C1845      C1846   1.340       .  D
C1845      H1847   1.086       .  S
C1846      H1848   1.088       .  S
C1849      C1850   1.340       .  D
C1849      H1851   1.087       .  S
C1850      H1852   1.087       .  S
C1853      C1854   1.349       .  D
C1853      H1855   1.087       .  S
C1854      H1856   1.086       .  S
C1857      C1858   1.349       .  D
C1857      H1859   1.087       .  S
C1858      H1860   1.086       .  S
C1861      C1862   1.348       .  D
C1861      H1863   1.087       .  S
C1862      H1864   1.086       .  S
C1865      C1866   1.344       .  D
C1865      H1867   1.086       .  S
C1866      H1868   1.088       .  S
C1869      C1870   1.337       .  D
C1869      H1871   1.088       .  S
C1870      H1872   1.086       .  S
C1873      C1874   1.349       .  D
C1873      H1875   1.087       .  S
C1874      H1876   1.087       .  S
C1877      C1878   1.337       .  D
C1877      H1879   1.088       .  S
C1878      H1880   1.087       .  S
C1881      C1882   1.212       .  T
C1883      C1884   1.208       .  T
C1885      C1886   1.209       .  T
C1887      C1888   1.197       .  T
C1889      C1890   1.208       .  T
C1891      C1892   1.204       .  T
C1893      C1894   1.210       .  T
C1895      C1896   1.211       .  T
C1897      C1898   1.208       .  T
C1899      C1900   1.223       .  T
C1901      C1902   1.220       .  T
C1903      C1904   1.219       .  T
C1905      C1906   1.341       .  D
C1905      H1907   1.088       .  S
C1906      H1908   1.086       .  S
C1909      C1910   1.346       .  D
C1909      H1911   1.086       .  S
C1910      H1912   1.088       .  S
C1913      C1914   1.343       .  D
C1913      H1915   1.087       .  S
C1914      H1916   1.087       .  S
C1917      C1918   1.341       .  D
C1917      H1919   1.087       .  S
C1918      H1920   1.087       .  S
C1921      C1922   1.350       .  D
C1921      H1923   1.086       .  S
C1922      H1924   1.087       .  S
C1925      C1926   1.343       .  D
C1925      H1927   1.087       .  S
C1926      H1928   1.087       .  S
C1929      C1930   1.341       .  D
C1929      H1931   1.086       .  S
C1930      H1932   1.088       .  S
C1933      C1934   1.344       .  D
C1933      H1935   1.087       .  S
C1934      H1936   1.086       .  S
C1937      C1938   1.340       .  D
C1937      H1939   1.089       .  S
C1938      H1940   1.086       .  S
C1941      C1942   1.347       .  D
C1941      H1943   1.086       .  S
C1942      H1944   1.087       .  S
C1945      C1946   1.350       .  D
C1945      H1947   1.086       .  S
C1946      H1948   1.087       .  S
C1949      C1950   1.334       .  D
C1949      H1951   1.087       .  S
C1950      H1952   1.089       .  S
