geometry optimzed in LAMMPS
_audit_creation_date              2020-11-30 
_audit_creation_method            'lammps2cif' 
_symmetry_space_group_name_H-M    'P1' 
_symmetry_Int_Tables_number       1 
_symmetry_cell_setting            triclinic 
loop_ 
_symmetry_equiv_pos_as_xyz 
  x,y,z 
_cell_length_a                    40.4625784 
_cell_length_b                    41.66492118454812 
_cell_length_c                    40.36165457970302 
_cell_angle_alpha                 89.77632166995178 
_cell_angle_beta                  90.04899975835278 
_cell_angle_gamma                 89.98645337626182 
loop_ 
_atom_site_label 
_atom_site_type_symbol 
_atom_site_fract_x 
_atom_site_fract_y 
_atom_site_fract_z 
_atom_site_charge 
O1          O  0.29390638  0.70028751  0.75054469    -0.77800
O2          O  0.29338913  0.81634465  0.73927587    -0.77800
O3          O  0.25487060  0.72601820  0.68789193    -0.77800
O4          O  0.25868239  0.78482575  0.81728052    -0.77800
O5          O  0.29245710  0.76575477  0.69190197    -0.77900
O6          O  0.29629355  0.74943800  0.80091996    -0.77800
O7          O  0.25436066  0.83366022  0.77334290    -0.77800
O8          O  0.25679880  0.69815731  0.71057859    -0.77900
C9          C  0.28247090  0.68631235  0.72532285     1.11900
C10         C  0.28285424  0.83642642  0.76041791     1.11800
C11         C  0.28108550  0.74121389  0.67732587     1.11900
C12         C  0.28598377  0.77005506  0.82139964     1.11800
O13         O  0.23622275  0.72594433  0.81089039    -0.77800
O14         O  0.22979288  0.78542322  0.67133257    -0.77900
O15         O  0.19991928  0.69027267  0.72719746    -0.77800
O16         O  0.19197718  0.81088342  0.74928959    -0.77800
O17         O  0.22893161  0.83370528  0.71636063    -0.77900
O18         O  0.23316358  0.69080021  0.77173376    -0.77800
O19         O  0.19613868  0.75898900  0.79548737    -0.77800
O20         O  0.19652122  0.74574301  0.68758414    -0.77900
Co21       Co  0.26345918  0.73146905  0.77066582     1.51500
Co22       Co  0.26116579  0.79818057  0.70719717     1.51700
Co23       Co  0.22188621  0.73107860  0.72744162     1.51600
Co24       Co  0.22575653  0.79495566  0.78094969     1.51500
O25         O  0.24542895  0.76807286  0.74348948    -1.39800
C26         C  0.20721341  0.73685734  0.81435080     1.11800
C27         C  0.20551114  0.76678132  0.66649010     1.11900
C28         C  0.21055034  0.67714516  0.75387441     1.11800
C29         C  0.20056186  0.83337440  0.72985246     1.11800
O30         O  0.75415241  0.19697298  0.71599839    -0.77800
O31         O  0.76269434  0.19634570  0.80259583    -0.77800
O32         O  0.82849543  0.24991009  0.72792658    -0.77800
O33         O  0.68214622  0.22909918  0.77605556    -0.77800
O34         O  0.81116994  0.20702073  0.75375159    -0.77900
O35         O  0.68478171  0.20268818  0.72710992    -0.77800
O36         O  0.72717322  0.22914523  0.82595541    -0.77800
O37         O  0.77891262  0.23593922  0.68755602    -0.77900
C38         C  0.77077545  0.20653356  0.69091858     1.11900
C39         C  0.74198480  0.20243734  0.82526518     1.11800
C40         C  0.83258811  0.22089771  0.73606480     1.11900
C41         C  0.67019922  0.20856852  0.75463689     1.11800
O42         O  0.68652568  0.26438784  0.73045596    -0.77800
O43         O  0.82301168  0.27012480  0.78374817    -0.77900
O44         O  0.74583795  0.29509837  0.70280102    -0.77800
O45         O  0.74754843  0.29465182  0.81450705    -0.77800
O46         O  0.78085808  0.25658067  0.83169402    -0.77900
O47         O  0.72060502  0.25059481  0.68704613    -0.77800
O48         O  0.70156321  0.29984287  0.76564150    -0.77800
O49         O  0.79716595  0.30613975  0.75177597    -0.77900
Co50       Co  0.72211287  0.22949324  0.73198997     1.51500
Co51       Co  0.79155802  0.23297070  0.78988700     1.51700
Co52       Co  0.78480246  0.27175043  0.72052672     1.51600
Co53       Co  0.71813044  0.26321688  0.79215388     1.51500
O54         O  0.75620543  0.25224312  0.75818290    -1.39800
C55         C  0.68258683  0.29151898  0.74293271     1.11800
C56         C  0.81986288  0.29863433  0.77233785     1.11900
C57         C  0.72839511  0.27983967  0.68182740     1.11800
C58         C  0.76803904  0.28395923  0.83544055     1.11800
O59         O  0.71432385  0.74044028  0.18854538    -0.77800
O60         O  0.80048752  0.75096501  0.19441130    -0.77800
O61         O  0.72060219  0.81491650  0.24121584    -0.77800
O62         O  0.77412255  0.67365137  0.22971133    -0.77800
O63         O  0.75024321  0.79766697  0.19985190    -0.77900
O64         O  0.72779368  0.67333551  0.19821236    -0.77800
O65         O  0.82211772  0.71833528  0.23152442    -0.77800
O66         O  0.68284582  0.76523202  0.22564859    -0.77900
C67         C  0.68848541  0.75660279  0.19593164     1.11900
C68         C  0.82279818  0.73128349  0.20315553     1.11800
C69         C  0.73195246  0.81894434  0.21238558     1.11900
C70         C  0.75520358  0.66047195  0.20727430     1.11800
O71         O  0.72574957  0.67753796  0.26197221    -0.77800
O72         O  0.77499154  0.81181700  0.26650897    -0.77900
O73         O  0.69398486  0.73546236  0.28876280    -0.77800
O74         O  0.80516547  0.74038070  0.29718811    -0.77800
O75         O  0.82462186  0.77134314  0.25782748    -0.77900
O76         O  0.68238560  0.70888755  0.24278058    -0.77800
O77         O  0.75736919  0.69472025  0.30063612    -0.77800
O78         O  0.74066479  0.78767267  0.30210157    -0.77900
Co79       Co  0.72870783  0.71091792  0.22467134     1.51500
Co80       Co  0.78455937  0.78005281  0.23000706     1.51700
Co81       Co  0.71260808  0.77309549  0.26473729     1.51600
Co82       Co  0.78620365  0.71013134  0.26444099     1.51500
O83         O  0.75227103  0.74563564  0.24871256    -1.39800
C84         C  0.73623535  0.67509250  0.29103416     1.11800
C85         C  0.76101133  0.81010150  0.29486674     1.11900
C86         C  0.67471210  0.71740694  0.27211850     1.11800
C87         C  0.82683083  0.75964047  0.28664671     1.11800
C88         C  0.53727304  0.99365359  0.01361382     0.04600
C89         C  0.51331003  0.96920760  0.01225726     0.04600
C90         C  0.48876237  0.97001264  0.98750934     0.04600
C91         C  0.48815026  0.99520069  0.96418016     0.04600
C92         C  0.51223498  0.01953896  0.96546313     0.04600
C93         C  0.53672105  0.01885307  0.99024699     0.04600
C94         C  0.68912317  0.96771303  0.17012877     0.05500
C95         C  0.66654760  0.96785519  0.14385883    -0.10700
C96         C  0.64984570  0.99597669  0.13519406     0.03000
C97         C  0.65568585  0.02432553  0.15262406    -0.09200
C98         C  0.67831306  0.02484264  0.17889574     0.05400
C99         C  0.69514170  0.99634220  0.18782132    -0.08600
H100        H  0.66170083  0.94590310  0.13029325     0.11000
H101        H  0.64260507  0.04607848  0.14567262     0.08600
H102        H  0.71256729  0.99642340  0.20821668     0.08400
C103        C  0.69783026  0.16066902  0.97585039     0.05500
C104        C  0.67269203  0.13765186  0.97523560    -0.10700
C105        C  0.65422648  0.13102395  0.00363979     0.03000
C106        C  0.66081778  0.14727221  0.03313971    -0.09200
C107        C  0.68586039  0.17046075  0.03441748     0.05400
C108        C  0.70452373  0.17727433  0.00560411    -0.08600
H109        H  0.66724179  0.12501580  0.95241335     0.11000
H110        H  0.64632624  0.14196409  0.05509321     0.08600
H111        H  0.72380888  0.19530701  0.00628592     0.08400
C112        C  0.32520766  0.03726344  0.82151647     0.05500
C113        C  0.31614678  0.00911064  0.80441673    -0.10700
C114        C  0.33354170  0.98026729  0.81018836     0.03000
C115        C  0.35971807  0.97979591  0.83284293    -0.09200
C116        C  0.36856536  0.00760199  0.84991587     0.05400
C117        C  0.35141951  0.03626279  0.84423074    -0.08600
H118        H  0.29578620  0.00960451  0.78700983     0.11000
H119        H  0.37296193  0.95758618  0.83757141     0.08600
H120        H  0.35839763  0.05778059  0.85760645     0.08400
C121        C  0.52049002  0.16652020  0.80662083     0.05500
C122        C  0.48995368  0.18197631  0.80164574    -0.10700
C123        C  0.46225046  0.17266125  0.82046434     0.03000
C124        C  0.46523436  0.14804823  0.84400304    -0.09200
C125        C  0.49567321  0.13289549  0.84897309     0.05400
C126        C  0.52314153  0.14201660  0.83025471    -0.08600
H127        H  0.48784444  0.20121077  0.78359310     0.11000
H128        H  0.44400017  0.14097339  0.85872805     0.08600
H129        H  0.54675190  0.13036186  0.83445689     0.08400
C130        C  0.48277964  0.81404738  0.16193155     0.05500
C131        C  0.51241496  0.79668847  0.16724741    -0.10700
C132        C  0.54161103  0.80548772  0.15018367     0.03000
C133        C  0.54087813  0.83148808  0.12812327    -0.09200
C134        C  0.51164798  0.84863744  0.12282683     0.05400
C135        C  0.48274969  0.83994980  0.13963810    -0.08600
H136        H  0.51276724  0.77665068  0.18447305     0.11000
H137        H  0.56317862  0.83845766  0.11504971     0.08600
H138        H  0.46015871  0.85336751  0.13531826     0.08400
C139        C  0.32738393  0.83278462  0.02705261     0.05500
C140        C  0.31778185  0.81495054  0.99911741    -0.10700
C141        C  0.33424113  0.81953388  0.96878850     0.03000
C142        C  0.35996035  0.84183081  0.96650610    -0.09200
C143        C  0.36939001  0.85951182  0.99424150     0.05400
C144        C  0.35318143  0.85502770  0.02447079    -0.08600
H145        H  0.29786349  0.79763713  0.00099267     0.11000
H146        H  0.37258768  0.84550648  0.94307975     0.08600
H147        H  0.36075392  0.86869150  0.04598368     0.08400
C148        C  0.03014474  0.51995278  0.00979200     0.04600
C149        C  0.02977582  0.49650394  0.98486161     0.04600
C150        C  0.00617683  0.47169523  0.98586776     0.04600
C151        C  0.98287532  0.47029847  0.01176194     0.04600
C152        C  0.98325347  0.49390960  0.03660845     0.04600
C153        C  0.00678747  0.51876752  0.03551822     0.04600
C154        C  0.17592882  0.66981684  0.95820143     0.05500
C155        C  0.15173203  0.64621550  0.96267778    -0.10700
C156        C  0.14787291  0.63140457  0.99354832     0.03000
C157        C  0.16833730  0.63989766  0.01997065    -0.09200
C158        C  0.19273096  0.66335172  0.01576455     0.05400
C159        C  0.19663955  0.67840438  0.98476267    -0.08600
H160        H  0.13558892  0.63974035  0.94231749     0.11000
H161        H  0.16488340  0.62862477  0.04403008     0.08600
H162        H  0.21511669  0.69699008  0.98152251     0.08400
C163        C  0.17870660  0.53600315  0.82618207     0.05500
C164        C  0.15418391  0.53621635  0.85072370    -0.10700
C165        C  0.14702874  0.50818106  0.86855294     0.03000
C166        C  0.16452019  0.47996854  0.86216028    -0.09200
C167        C  0.18905889  0.47940454  0.83780539     0.05400
C168        C  0.19626303  0.50750164  0.81972379    -0.08600
H169        H  0.14036259  0.55802548  0.85560019     0.11000
H170        H  0.15858339  0.45821049  0.87577717     0.08600
H171        H  0.21493207  0.50707155  0.80051929     0.08400
C172        C  0.97343244  0.68222140  0.17152296     0.05500
C173        C  0.00202734  0.68913465  0.19039096    -0.10700
C174        C  0.03077084  0.67023133  0.18638800     0.03000
C175        C  0.03066741  0.64488149  0.16384465    -0.09200
C176        C  0.00246916  0.63815832  0.14530543     0.05400
C177        C  0.97398582  0.65670076  0.14906462    -0.08600
H178        H  0.00193074  0.70886536  0.20779974     0.11000
H179        H  0.05272319  0.63041541  0.16054542     0.08600
H180        H  0.95215176  0.65116798  0.13455454     0.08400
C181        C  0.82347466  0.51732119  0.18440196     0.05500
C182        C  0.81828296  0.48931146  0.20340658    -0.10700
C183        C  0.83884660  0.46236419  0.19883375     0.03000
C184        C  0.86435367  0.46365187  0.17547554    -0.09200
C185        C  0.86937798  0.49140691  0.15661906     0.05400
C186        C  0.84906843  0.51816399  0.16110207    -0.08600
H187        H  0.79829076  0.48837372  0.22123661     0.11000
H188        H  0.87993751  0.44282648  0.17153466     0.08600
H189        H  0.85303655  0.53959348  0.14625398     0.08400
C190        C  0.02344643  0.32165993  0.83086580     0.05500
C191        C  0.02657927  0.34445984  0.85599432    -0.10700
C192        C  0.00014249  0.36457354  0.86366233     0.03000
C193        C  0.97043393  0.36218137  0.84625514    -0.09200
C194        C  0.96692635  0.33948088  0.82108054     0.05400
C195        C  0.99352221  0.31905463  0.81323888    -0.08600
H196        H  0.04961223  0.34653076  0.86963166     0.11000
H197        H  0.94990561  0.37770503  0.85259828     0.08600
H198        H  0.99092268  0.30131865  0.79383244     0.08400
C199        C  0.83899051  0.30970968  0.04011280     0.05500
C200        C  0.86254643  0.33437501  0.04135452    -0.10700
C201        C  0.86812237  0.35387139  0.01355492     0.03000
C202        C  0.85005736  0.34881886  0.98445453    -0.09200
C203        C  0.82642251  0.32431660  0.98288832     0.05400
C204        C  0.82086366  0.30468965  0.01079821    -0.08600
H205        H  0.87650177  0.33839207  0.06389542     0.11000
H206        H  0.85456863  0.36386009  0.96288906     0.08600
H207        H  0.80262591  0.28566897  0.00970234     0.08400
C208        C  0.51916560  0.47232260  0.50343607     0.04600
C209        C  0.49357703  0.47191182  0.52706277     0.04600
C210        C  0.46879831  0.49555586  0.52591252     0.04600
C211        C  0.46955005  0.51949033  0.50124613     0.04600
C212        C  0.49512620  0.51978183  0.47769553     0.04600
C213        C  0.52006549  0.49629228  0.47881244     0.04600
C214        C  0.53437772  0.32741008  0.68322364     0.05500
C215        C  0.53116551  0.35169601  0.65930210    -0.10700
C216        C  0.50113522  0.35630437  0.64272696     0.03000
C217        C  0.47409400  0.33662063  0.64990929    -0.09200
C218        C  0.47673918  0.31220890  0.67371093     0.05400
C219        C  0.50701357  0.30753812  0.69048683    -0.08600
H220        H  0.55206160  0.36702561  0.65356461     0.11000
H221        H  0.45084592  0.34044588  0.63707066     0.08600
H222        H  0.50921710  0.28876171  0.70904501     0.08400
C223        C  0.31648765  0.66912398  0.47418167     0.05500
C224        C  0.30944466  0.68578988  0.50361299    -0.10700
C225        C  0.32469180  0.67640796  0.53350060     0.03000
C226        C  0.34677235  0.65052032  0.53380440    -0.09200
C227        C  0.35380468  0.63413380  0.50448229     0.05400
C228        C  0.33865084  0.64336400  0.47483368    -0.08600
H229        H  0.29244368  0.70590540  0.50323704     0.11000
H230        H  0.35869880  0.64333827  0.55673945     0.08600
H231        H  0.34442705  0.63068931  0.45211092     0.08400
C232        C  0.68141369  0.53013659  0.33328282     0.05500
C233        C  0.68923341  0.50202823  0.31529149    -0.10700
C234        C  0.67242592  0.47293339  0.32207770     0.03000
C235        C  0.64809087  0.47234183  0.34677364    -0.09200
C236        C  0.64036128  0.50011901  0.36452380     0.05400
C237        C  0.65695544  0.52883302  0.35779277    -0.08600
H238        H  0.70808818  0.50281634  0.29618846     0.11000
H239        H  0.63507338  0.45020118  0.35216575     0.08600
H240        H  0.65068644  0.55029836  0.37158456     0.08400
C241        C  0.46788002  0.65004804  0.30819933     0.05500
C242        C  0.49672885  0.66581529  0.29770302    -0.10700
C243        C  0.52655446  0.66048022  0.31470112     0.03000
C244        C  0.52727706  0.63960960  0.34195779    -0.09200
C245        C  0.49838358  0.62420799  0.35227073     0.05400
C246        C  0.46878181  0.62937545  0.33544716    -0.08600
H247        H  0.49593315  0.68215899  0.27670988     0.11000
H248        H  0.55022921  0.63543372  0.35515404     0.08600
H249        H  0.44637423  0.61750116  0.34373314     0.08400
C250        C  0.30991120  0.53796342  0.67000065     0.05500
C251        C  0.29130070  0.51025397  0.67789824    -0.10700
C252        C  0.29829116  0.48096743  0.66180274     0.03000
C253        C  0.32346510  0.47969697  0.63817835    -0.09200
C254        C  0.34199229  0.50697838  0.63074626     0.05400
C255        C  0.33518575  0.53603102  0.64643825    -0.08600
H256        H  0.27212741  0.51135120  0.69650155     0.11000
H257        H  0.32931515  0.45711521  0.62617153     0.08600
H258        H  0.34990563  0.55710469  0.64060162     0.08400
C259        C  0.66789837  0.31941650  0.53439110     0.05500
C260        C  0.64616212  0.34548789  0.53368360    -0.10700
C261        C  0.62871843  0.35276103  0.50477280     0.03000
C262        C  0.63281609  0.33404995  0.47646369    -0.09200
C263        C  0.65448365  0.30790777  0.47694540     0.05400
C264        C  0.67217301  0.30048814  0.50596676    -0.08600
H265        H  0.64274997  0.36004847  0.55563475     0.11000
H266        H  0.61930493  0.33995666  0.45400315     0.08600
H267        H  0.68911845  0.28034064  0.50638742     0.08400
C268        C  0.02216619  0.99833642  0.51955411     0.04600
C269        C  0.02245759  0.97413245  0.49533880     0.04600
C270        C  0.99672935  0.97249811  0.47187328     0.04600
C271        C  0.97057586  0.99479105  0.47290252     0.04600
C272        C  0.97031735  0.01887960  0.49727384     0.04600
C273        C  0.99609573  0.02066883  0.52059659     0.04600
C274        C  0.03677899  0.17347667  0.66707312     0.05500
C275        C  0.03436778  0.14862007  0.64393267    -0.10700
C276        C  0.00381509  0.13413780  0.63762516     0.03000
C277        C  0.97559379  0.14426927  0.65463518    -0.09200
C278        C  0.97770709  0.16893646  0.67801428     0.05400
C279        C  0.00839868  0.18360603  0.68427461    -0.08600
H280        H  0.05614697  0.14084242  0.63053970     0.11000
H281        H  0.95191579  0.13314686  0.64945504     0.08600
H282        H  0.01011968  0.20294673  0.70210923     0.08400
C283        C  0.16871703  0.03537342  0.68011782     0.05500
C284        C  0.17253119  0.00691283  0.69870263    -0.10700
C285        C  0.15489876  0.97916521  0.68963531     0.03000
C286        C  0.13370066  0.98006267  0.66229866    -0.09200
C287        C  0.13004530  0.00825957  0.64386506     0.05400
C288        C  0.14736466  0.03591543  0.65280131    -0.08600
H289        H  0.18938803  0.00621568  0.71949425     0.11000
H290        H  0.12049792  0.95855340  0.65492531     0.08600
H291        H  0.14457001  0.05772929  0.63822110     0.08400
C292        C  0.17059366  0.81758057  0.51606539     0.05500
C293        C  0.18921968  0.81352429  0.48680997    -0.10700
C294        C  0.18350066  0.83372016  0.45920482     0.03000
C295        C  0.15931456  0.85769327  0.46112067    -0.09200
C296        C  0.14088682  0.86168773  0.49010118     0.05400
C297        C  0.14650655  0.84169293  0.51742798    -0.08600
H298        H  0.20791541  0.79493327  0.48554894     0.11000
H299        H  0.15471122  0.87319757  0.43994815     0.08600
H300        H  0.13220336  0.84502236  0.53988290     0.08400
C301        C  0.81265861  0.16058769  0.54002992     0.05500
C302        C  0.83706170  0.13687166  0.53767351    -0.10700
C303        C  0.85083972  0.12922313  0.50697647     0.03000
C304        C  0.84051596  0.14526200  0.47840378    -0.09200
C305        C  0.81640662  0.16921343  0.48022052     0.05400
C306        C  0.80223257  0.17696152  0.51113352    -0.08600
H307        H  0.84536944  0.12434370  0.55978039     0.11000
H308        H  0.85144416  0.13921317  0.45469701     0.08600
H309        H  0.78352554  0.19551819  0.51270107     0.08400
C310        C  0.80626687  0.01431214  0.32821101     0.05500
C311        C  0.83282481  0.01542887  0.35046372    -0.10700
C312        C  0.84335244  0.98761370  0.36681382     0.03000
C313        C  0.82728253  0.95845312  0.36121829    -0.09200
C314        C  0.80057629  0.95679367  0.33920420     0.05400
C315        C  0.78998814  0.98485219  0.32253658    -0.08600
H316        H  0.84550092  0.03793663  0.35486643     0.11000
H317        H  0.83574318  0.93693899  0.37385354     0.08600
H318        H  0.76951946  0.98372279  0.30516893     0.08400
C319        C  0.97395648  0.81326588  0.32906286     0.05500
C320        C  0.97366709  0.83779821  0.35262933    -0.10700
C321        C  0.00175698  0.85664451  0.35766418     0.03000
C322        C  0.03039950  0.85104570  0.33924022    -0.09200
C323        C  0.03110232  0.82654746  0.31560291     0.05400
C324        C  0.00277900  0.80753117  0.31043356    -0.08600
H325        H  0.95145302  0.84242129  0.36687016     0.11000
H326        H  0.05214981  0.86569868  0.34335077     0.08600
H327        H  0.00312703  0.78860258  0.29209216     0.08400
O328        O  0.26521917  0.18921638  0.70529014    -0.77800
O329        O  0.24541428  0.31096918  0.70028365    -0.77800
O330        O  0.18189619  0.22551805  0.74036615    -0.77800
O331        O  0.32217137  0.28244549  0.73757417    -0.77800
O332        O  0.19840467  0.25985746  0.70177070    -0.77900
O333        O  0.30521910  0.24386347  0.70344802    -0.77800
O334        O  0.27823104  0.33194100  0.73828291    -0.77800
O335        O  0.22044677  0.18952421  0.73808363    -0.77900
C336        C  0.23845006  0.17616882  0.71541004     1.11900
C337        C  0.26455683  0.33314470  0.70995140     1.11800
C338        C  0.17918576  0.23750982  0.71158706     1.11900
C339        C  0.32664662  0.26424464  0.71288058     1.11800
O340        O  0.30448928  0.22248569  0.76111409    -0.77800
O341        O  0.17593516  0.28388474  0.76479348    -0.77900
O342        O  0.24052927  0.19776047  0.79965538    -0.77800
O343        O  0.25492816  0.31277313  0.80199429    -0.77800
O344        O  0.22105167  0.33174949  0.76331990    -0.77900
O345        O  0.28086780  0.19539716  0.76309040    -0.77800
O346        O  0.30137390  0.26121691  0.79976809    -0.77800
O347        O  0.19045258  0.24682335  0.80166924    -0.77900
Co348      Co  0.26511186  0.22930116  0.72829035     1.51500
Co349      Co  0.21307042  0.29440825  0.73304197     1.51700
Co350      Co  0.22138193  0.22961298  0.76906163     1.51600
Co351      Co  0.28661043  0.29494983  0.76932275     1.51500
O352        O  0.24965987  0.26611208  0.75255268    -1.39800
C353        C  0.31559689  0.23685691  0.78756038     1.11800
C354        C  0.17061318  0.26809604  0.79135991     1.11900
C355        C  0.26581614  0.18364870  0.78865576     1.11800
C356        C  0.23437885  0.33367765  0.79178407     1.11800
O357        O  0.75312699  0.17609489  0.28516577    -0.77800
O358        O  0.76418626  0.31945811  0.22924791    -0.77800
O359        O  0.79712833  0.23151086  0.20528637    -0.77800
O360        O  0.78954849  0.24484532  0.31135510    -0.77800
O361        O  0.76541007  0.27087617  0.18532043    -0.77900
O362        O  0.74828038  0.21251302  0.32464915    -0.77800
O363        O  0.79835880  0.29642265  0.26506946    -0.77800
O364        O  0.78858002  0.17517376  0.24256502    -0.77900
C365        C  0.77599265  0.16180489  0.26819878     1.11900
C366        C  0.79164803  0.31864681  0.24447998     1.11800
C367        C  0.79031258  0.25251606  0.18336624     1.11900
C368        C  0.77675405  0.22382557  0.33044489     1.11800
O369        O  0.68955880  0.23629270  0.30963006    -0.77800
O370        O  0.70085213  0.25275143  0.20066693    -0.77900
O371        O  0.73340526  0.18480181  0.22184326    -0.77800
O372        O  0.73543109  0.32088967  0.28458341    -0.77800
O373        O  0.69797268  0.30546821  0.24776526    -0.77900
O374        O  0.69458762  0.18701609  0.25999686    -0.77800
O375        O  0.72599963  0.27208208  0.32789025    -0.77800
O376        O  0.73804513  0.21246315  0.19938507    -0.77900
Co377      Co  0.72427629  0.21774103  0.28215667     1.51500
Co378      Co  0.73169197  0.28481841  0.21833602     1.51700
Co379      Co  0.76761763  0.21656413  0.24186741     1.51600
Co380      Co  0.76196276  0.28132392  0.29434234     1.51500
O381        O  0.74412237  0.25443736  0.25597018    -1.39800
C382        C  0.69846694  0.25733545  0.33031715     1.11800
C383        C  0.71335125  0.22840880  0.18643104     1.11900
C384        C  0.70695137  0.17313509  0.23515128     1.11800
C385        C  0.70836513  0.32545040  0.26932973     1.11800
O386        O  0.30274003  0.69318722  0.23931726    -0.77800
O387        O  0.20454197  0.69702849  0.25008029    -0.77800
O388        O  0.28149376  0.74269596  0.31902271    -0.77800
O389        O  0.22867556  0.73735553  0.17004741    -0.77800
O390        O  0.25399553  0.70161810  0.29981167    -0.77900
O391        O  0.26096967  0.69729856  0.18477055    -0.77800
O392        O  0.18297876  0.73426326  0.21727165    -0.77800
O393        O  0.32399754  0.73061255  0.27153161    -0.77900
C394        C  0.32359987  0.70200665  0.26050157     1.11900
C395        C  0.18233801  0.70624366  0.22993774     1.11800
C396        C  0.27172945  0.71406992  0.32214624     1.11900
C397        C  0.24160711  0.71007658  0.16422822     1.11800
O398        O  0.28604469  0.75829973  0.17643678    -0.77800
O399        O  0.22718154  0.76533865  0.31516487    -0.77900
O400        O  0.31138269  0.79097857  0.23919675    -0.77800
O401        O  0.20169570  0.79686028  0.24276028    -0.77800
O402        O  0.17962576  0.75773572  0.27188464    -0.77900
O403        O  0.32630033  0.74762973  0.21155397    -0.77800
O404        O  0.25367924  0.79717014  0.19504240    -0.77800
O405        O  0.25974098  0.80123547  0.29012357    -0.77900
Co406      Co  0.28122271  0.72768278  0.21515201     1.51500
Co407      Co  0.21914319  0.73036139  0.28164476     1.51700
Co408      Co  0.29032396  0.76630793  0.27663808     1.51600
Co409      Co  0.21975867  0.76607894  0.20996129     1.51500
O410        O  0.25143865  0.74825226  0.24690573    -1.39800
C411        C  0.27493604  0.78689918  0.17444748     1.07600
C412        C  0.23931747  0.79357581  0.31298255     1.11900
C413        C  0.33246349  0.77610295  0.22116030     1.11800
C414        C  0.17863946  0.78619051  0.26092825     1.11800
C415        C  0.06145389  0.82106189  0.29763381    -0.16200
C416        C  0.08857833  0.81772578  0.28556892     0.07900
C417        C  0.12135501  0.81261130  0.27439304     0.09700
C418        C  0.14898846  0.80424659  0.26703839    -0.17000
C419        C  0.79695665  0.04376360  0.31131980    -0.16200
C420        C  0.79261788  0.07018256  0.29935970     0.07900
C421        C  0.78911753  0.10206599  0.28704328     0.09700
C422        C  0.78505370  0.12947250  0.27766933    -0.17000
C423        C  0.80738572  0.18537032  0.44977684    -0.16200
C424        C  0.80334028  0.19580643  0.42206405     0.07900
C425        C  0.79927844  0.20602598  0.38876477     0.09700
C426        C  0.79259834  0.21424480  0.36080168    -0.17000
C427        C  0.23254155  0.81454418  0.34046766    -0.16200
C428        C  0.22462948  0.82360404  0.36781813     0.07900
C429        C  0.21323225  0.82796396  0.40082267     0.09700
C430        C  0.20131125  0.82997441  0.42828622    -0.17000
C431        C  0.18720110  0.06398651  0.68795179    -0.16200
C432        C  0.20150240  0.08905367  0.69239064     0.07900
C433        C  0.21686572  0.11918396  0.69728846     0.09700
C434        C  0.22826345  0.14527767  0.70342227    -0.17000
C435        C  0.06839175  0.18879459  0.67225297    -0.16200
C436        C  0.09531699  0.20087297  0.67580670     0.07900
C437        C  0.12674193  0.21468680  0.68174637     0.09700
C438        C  0.15246257  0.22600005  0.69142358    -0.17000
C439        C  0.00102817  0.88190258  0.38171065    -0.16200
C440        C  0.99989739  0.90292427  0.40200216     0.07900
C441        C  0.99834488  0.92728264  0.42596744     0.09700
C442        C  0.99727608  0.94790481  0.44669733    -0.17000
C443        C  0.94378484  0.99281587  0.44917205    -0.16200
C444        C  0.92109497  0.99141776  0.42991825     0.07900
C445        C  0.89417827  0.99001408  0.40781958     0.09700
C446        C  0.87101273  0.98891899  0.38912578    -0.17000
C447        C  0.87585467  0.10497850  0.50468216    -0.16200
C448        C  0.89697528  0.08483554  0.50242265     0.07900
C449        C  0.92193020  0.06152375  0.49997230     0.09700
C450        C  0.94364991  0.04191838  0.49839792    -0.17000
C451        C  0.99590001  0.04539259  0.54580298    -0.16200
C452        C  0.99688651  0.06559944  0.56704020     0.07900
C453        C  0.99903142  0.08913434  0.59193668     0.09700
C454        C  0.00122274  0.10943445  0.61298361    -0.17000
C455        C  0.04838035  0.00027618  0.54376810    -0.16200
C456        C  0.06875621  0.00299597  0.56523117     0.07900
C457        C  0.09099653  0.00636560  0.59171014     0.09700
C458        C  0.10908005  0.00822780  0.61524031    -0.17000
C459        C  0.04891248  0.95066950  0.49479777    -0.16200
C460        C  0.07041271  0.93068076  0.49411095     0.07900
C461        C  0.09515139  0.90688128  0.49298140     0.09700
C462        C  0.11606712  0.88634380  0.49176872    -0.17000
C463        C  0.65920163  0.29004008  0.44690599    -0.16200
C464        C  0.66297813  0.27862231  0.41979469     0.07900
C465        C  0.66955267  0.26882285  0.38705632     0.09700
C466        C  0.67944407  0.26271042  0.35966556    -0.17000
C467        C  0.28220914  0.45107301  0.67040796    -0.16200
C468        C  0.27427262  0.42349832  0.67560257     0.07900
C469        C  0.26942147  0.39035889  0.68233046     0.09700
C470        C  0.26709984  0.36278908  0.69159748    -0.17000
C471        C  0.43663676  0.65575532  0.29261171    -0.16200
C472        C  0.40883276  0.66052069  0.28345667     0.07900
C473        C  0.37626126  0.66906227  0.27551559     0.09700
C474        C  0.35017986  0.68124305  0.26911296    -0.17000
C475        C  0.67937021  0.44314550  0.30453709    -0.16200
C476        C  0.68253224  0.41634635  0.29302454     0.07900
C477        C  0.68613193  0.38387533  0.28211063     0.09700
C478        C  0.69240128  0.35621111  0.27478027    -0.17000
C479        C  0.30213069  0.67832295  0.44276057    -0.16200
C480        C  0.29287661  0.68382690  0.41481344     0.07900
C481        C  0.28426672  0.69006328  0.38133697     0.09700
C482        C  0.27806330  0.69801545  0.35316126    -0.17000
C483        C  0.44751922  0.29327186  0.68092535    -0.16200
C484        C  0.42049286  0.28131735  0.68495865     0.07900
C485        C  0.38723629  0.27132846  0.68994740     0.09700
C486        C  0.35867548  0.26610656  0.69722608    -0.17000
C487        C  0.44414116  0.54395901  0.50051173    -0.16200
C488        C  0.42283414  0.56407395  0.50136561     0.07900
C489        C  0.39813069  0.58776036  0.50317793     0.09700
C490        C  0.37753622  0.60853759  0.50437639    -0.17000
C491        C  0.36915065  0.50452711  0.60818240    -0.16200
C492        C  0.39233620  0.50137138  0.58994026     0.07900
C493        C  0.41951742  0.49758191  0.56874252     0.09700
C494        C  0.44237850  0.49553797  0.54992279    -0.17000
C495        C  0.49563407  0.54391707  0.45201489    -0.16200
C496        C  0.49659903  0.56322093  0.42991350     0.07900
C497        C  0.49802104  0.58497678  0.40339577     0.09700
C498        C  0.49882235  0.60309045  0.38025162    -0.17000
C499        C  0.54655566  0.49678774  0.45459627    -0.16200
C500        C  0.56837050  0.49748716  0.43429874     0.07900
C501        C  0.59366021  0.49842437  0.41028536     0.09700
C502        C  0.61505557  0.49920566  0.38954835    -0.17000
C503        C  0.54420244  0.44771140  0.50404685    -0.16200
C504        C  0.56444666  0.42667574  0.50417316     0.07900
C505        C  0.58735411  0.40144187  0.50415163     0.09700
C506        C  0.60642163  0.37939353  0.50426560    -0.17000
C507        C  0.49296809  0.44729687  0.55253423    -0.16200
C508        C  0.49362776  0.42661592  0.57346343     0.07900
C509        C  0.49561423  0.40224587  0.59771361     0.09700
C510        C  0.49800084  0.38134716  0.61828614    -0.17000
C511        C  0.80986488  0.25560090  0.15373246    -0.16200
C512        C  0.82042202  0.26322952  0.12679911     0.07900
C513        C  0.82822445  0.27642000  0.09529362     0.09700
C514        C  0.83316728  0.29033500  0.06938634    -0.17000
C515        C  0.13931346  0.27275247  0.80728776    -0.16200
C516        C  0.11115840  0.27890130  0.81471453     0.07900
C517        C  0.07831984  0.28942475  0.81952185     0.09700
C518        C  0.05174825  0.30198540  0.82343744    -0.17000
C519        C  0.83317733  0.43240518  0.21612488    -0.16200
C520        C  0.82932630  0.40550248  0.22682890     0.07900
C521        C  0.82289044  0.37314780  0.23578315     0.09700
C522        C  0.81264213  0.34633279  0.24097328    -0.17000
C523        C  0.06136913  0.67640526  0.20379390    -0.16200
C524        C  0.08954862  0.67836792  0.21366812     0.07900
C525        C  0.12368562  0.68116703  0.22120869     0.09700
C526        C  0.15233154  0.68821886  0.22566937    -0.17000
C527        C  0.22880911  0.36273359  0.81012589    -0.16200
C528        C  0.22317537  0.38977136  0.81931540     0.07900
C529        C  0.21475246  0.42215267  0.82590549     0.09700
C530        C  0.20499265  0.44917227  0.83068130    -0.17000
C531        C  0.21166648  0.67294263  0.04433805    -0.16200
C532        C  0.22309948  0.67964001  0.07106713     0.07900
C533        C  0.23190095  0.68747637  0.10398160     0.09700
C534        C  0.23679773  0.69591809  0.13214704    -0.17000
C535        C  0.05364431  0.49829320  0.95815987    -0.16200
C536        C  0.07430890  0.50124876  0.93692467     0.07900
C537        C  0.09924509  0.50520355  0.91292650     0.09700
C538        C  0.12095834  0.50765646  0.89270331    -0.17000
C539        C  0.05456750  0.54530983  0.00870334    -0.16200
C540        C  0.07555963  0.56561321  0.00636444     0.07900
C541        C  0.10063500  0.58865469  0.00235770     0.09700
C542        C  0.12223255  0.60809856  0.99839169    -0.17000
C543        C  0.00297620  0.61211554  0.12227588    -0.16200
C544        C  0.00408758  0.59025054  0.10302603     0.07900
C545        C  0.00552001  0.56490696  0.08027900     0.09700
C546        C  0.00639545  0.54363857  0.06031358    -0.17000
C547        C  0.95923754  0.49290567  0.06309892    -0.16200
C548        C  0.93920344  0.49250221  0.08507474     0.07900
C549        C  0.91547588  0.49227681  0.11049786     0.09700
C550        C  0.89475305  0.49203132  0.13182457    -0.17000
C551        C  0.95829936  0.44491629  0.01267767    -0.16200
C552        C  0.93764010  0.42406754  0.01361417     0.07900
C553        C  0.91336919  0.39972351  0.01448758     0.09700
C554        C  0.89269767  0.37886999  0.01459751    -0.17000
C555        C  0.00574649  0.44788531  0.96006513    -0.16200
C556        C  0.00547503  0.42853148  0.93813355     0.07900
C557        C  0.00469982  0.40627624  0.91218509     0.09700
C558        C  0.00316601  0.38731186  0.88994792    -0.17000
C559        C  0.31205238  0.82779288  0.05889598    -0.16200
C560        C  0.30198414  0.82357743  0.08671884     0.07900
C561        C  0.29230356  0.81636117  0.11956746     0.09700
C562        C  0.28460901  0.80605636  0.14645368    -0.17000
C563        C  0.36376189  0.79029486  0.21132670    -0.16200
C564        C  0.39160369  0.79681870  0.20212233     0.07900
C565        C  0.42453214  0.80163640  0.19022555     0.09700
C566        C  0.45193677  0.80595626  0.17862745    -0.17000
C567        C  0.34470920  0.22391962  0.80298439    -0.16200
C568        C  0.37140098  0.21296409  0.81009962     0.07900
C569        C  0.40348044  0.20002869  0.81409918     0.09700
C570        C  0.43069040  0.18832249  0.81641715    -0.17000
C571        C  0.30832779  0.06754786  0.81613712    -0.16200
C572        C  0.29707789  0.09437085  0.81311866     0.07900
C573        C  0.28604835  0.12657459  0.80908700     0.09700
C574        C  0.27717303  0.15370416  0.80277937    -0.17000
C575        C  0.70085664  0.21783568  0.15473753    -0.16200
C576        C  0.69603394  0.20884339  0.12661117     0.07900
C577        C  0.69365993  0.19768189  0.09339382     0.09700
C578        C  0.69153246  0.18669428  0.06567725    -0.17000
C579        C  0.68385387  0.05520043  0.19556411    -0.16200
C580        C  0.68620927  0.08247706  0.20576346     0.07900
C581        C  0.68893842  0.11528913  0.21527115     0.09700
C582        C  0.69399859  0.14289864  0.22331764    -0.17000
C583        C  0.46228760  0.99675419  0.93934681    -0.16200
C584        C  0.44104677  0.99957991  0.91862648     0.07900
C585        C  0.41621780  0.00351836  0.89445873     0.09700
C586        C  0.39471579  0.00620921  0.87399818    -0.17000
C587        C  0.46362408  0.94541344  0.98673314    -0.16200
C588        C  0.44250527  0.92515454  0.98737145     0.07900
C589        C  0.41745597  0.90189453  0.98934700     0.09700
C590        C  0.39568294  0.88240946  0.99157831    -0.17000
C591        C  0.62814677  0.10771751  0.00208368    -0.16200
C592        C  0.60656112  0.08806057  0.99929346     0.07900
C593        C  0.58175577  0.06472800  0.99525920     0.09700
C594        C  0.56102108  0.04424915  0.99226480    -0.17000
C595        C  0.49926180  0.10874132  0.87415016    -0.16200
C596        C  0.50332950  0.08894240  0.89552264     0.07900
C597        C  0.50822252  0.06580303  0.92051253     0.09700
C598        C  0.51122240  0.04537201  0.94143019    -0.17000
C599        C  0.51341398  0.94360588  0.03670108    -0.16200
C600        C  0.51288832  0.92223016  0.05688033     0.07900
C601        C  0.51197537  0.89698765  0.08023094     0.09700
C602        C  0.51144296  0.87513384  0.09985751    -0.17000
C603        C  0.62629675  0.99554877  0.10858071    -0.16200
C604        C  0.60630240  0.99475885  0.08653076     0.07900
C605        C  0.58259581  0.99376538  0.06103846     0.09700
C606        C  0.56209836  0.99331223  0.03944355    -0.17000
C607        C  0.78551337  0.92569153  0.33361011    -0.16200
C608        C  0.77672878  0.89805392  0.33038270     0.07900
C609        C  0.76943356  0.86505106  0.32515264     0.09700
C610        C  0.76484620  0.83779291  0.31584737    -0.17000
C611        C  0.70466495  0.93745618  0.17868348    -0.16200
C612        C  0.71390767  0.91013472  0.18328353     0.07900
C613        C  0.72169202  0.87727210  0.18875736     0.09700
C614        C  0.72683208  0.84959345  0.19644901    -0.17000
C615        C  0.85272052  0.72664882  0.18429539    -0.16200
C616        C  0.88124745  0.72053730  0.17756801     0.07900
C617        C  0.91499977  0.71098133  0.17557609     0.09700
C618        C  0.94279269  0.70004470  0.17487309    -0.17000
C619        C  0.85650180  0.76603641  0.30511179    -0.16200
C620        C  0.88400380  0.77312484  0.31418949     0.07900
C621        C  0.91676130  0.78370470  0.32003670     0.09700
C622        C  0.94387888  0.79535039  0.32366406    -0.17000
C623        C  0.69732664  0.56087284  0.32695585    -0.16200
C624        C  0.70769258  0.58806564  0.32358015     0.07900
C625        C  0.71806752  0.62046304  0.31861785     0.09700
C626        C  0.72645679  0.64725179  0.31017195    -0.17000
C627        C  0.76433222  0.62901770  0.19574844    -0.16200
C628        C  0.77440810  0.60204440  0.19129468     0.07900
C629        C  0.78862338  0.57097562  0.18941006     0.09700
C630        C  0.80300836  0.54554695  0.18812499    -0.17000
C631        C  0.57297356  0.78904720  0.15507942    -0.16200
C632        C  0.60097409  0.77878765  0.15771955     0.07900
C633        C  0.63449655  0.76928829  0.16274543     0.09700
C634        C  0.66196840  0.76258928  0.17272923    -0.17000
C635        C  0.55675405  0.67603964  0.30477171    -0.16200
C636        C  0.58365766  0.68706968  0.29875673     0.07900
C637        C  0.61601781  0.69827735  0.29245225     0.09700
C638        C  0.64350785  0.70713130  0.28534280    -0.17000
C639        C  0.84650785  0.32029612  0.77927842    -0.16200
C640        C  0.87375710  0.33017978  0.78585667     0.07900
C641        C  0.90716880  0.33496791  0.79492844     0.09700
C642        C  0.93523378  0.33673924  0.80495566    -0.17000
C643        C  0.86279601  0.20507552  0.72660485    -0.16200
C644        C  0.88962452  0.19560635  0.71775319     0.07900
C645        C  0.92140254  0.18679202  0.70607784     0.09700
C646        C  0.94787609  0.17935906  0.69449809    -0.17000
C647        C  0.71517618  0.16708998  0.94505211    -0.16200
C648        C  0.72536055  0.17007495  0.91692792     0.07900
C649        C  0.73373863  0.17433484  0.88290370     0.09700
C650        C  0.73869966  0.18255651  0.85446800    -0.17000
C651        C  0.77537492  0.30094189  0.86557848    -0.16200
C652        C  0.78397821  0.30948853  0.89286371     0.07900
C653        C  0.79635154  0.31536880  0.92517826     0.09700
C654        C  0.80884188  0.31915316  0.95213435    -0.17000
C655        C  0.63792933  0.19541626  0.76090992    -0.16200
C656        C  0.60978161  0.18824029  0.76759293     0.07900
C657        C  0.57690555  0.18189528  0.77766320     0.09700
C658        C  0.54993161  0.17603845  0.78897979    -0.17000
C659        C  0.65388315  0.30982208  0.73299549    -0.16200
C660        C  0.62654918  0.31743826  0.72339956     0.07900
C661        C  0.59370295  0.32124195  0.71122434     0.09700
C662        C  0.56609100  0.32333346  0.69962335    -0.17000
C663        C  0.71797356  0.29458147  0.65145159    -0.16200
C664        C  0.70881875  0.30225667  0.62414546     0.07900
C665        C  0.69695698  0.30792290  0.59177864     0.09700
C666        C  0.68502366  0.31231738  0.56478123    -0.17000
C667        C  0.79931752  0.16768003  0.57253134    -0.16200
C668        C  0.79107689  0.17160063  0.60111485     0.07900
C669        C  0.78332163  0.17705082  0.63502603     0.09700
C670        C  0.77735493  0.18612371  0.66289090    -0.17000
C671        C  0.30310781  0.77513108  0.85204551    -0.16200
C672        C  0.31211789  0.78123990  0.87979126     0.07900
C673        C  0.31914925  0.79104843  0.91249853     0.09700
C674        C  0.32495668  0.80227762  0.93937459    -0.17000
C675        C  0.18841693  0.72446205  0.84158272    -0.16200
C676        C  0.18104971  0.71249324  0.86778930     0.07900
C677        C  0.17870483  0.69816795  0.89948157     0.09700
C678        C  0.17820720  0.68570395  0.92650865    -0.17000
C679        C  0.18055154  0.86171278  0.72632147    -0.16200
C680        C  0.17038080  0.88873635  0.72246829     0.07900
C681        C  0.16370429  0.92144776  0.71554214     0.09700
C682        C  0.15985110  0.94878406  0.70621358    -0.17000
C683        C  0.32443778  0.95045284  0.79430925    -0.16200
C684        C  0.31848207  0.92379172  0.78408605     0.07900
C685        C  0.31083184  0.89189238  0.77449771     0.09700
C686        C  0.30112125  0.86528453  0.76753864    -0.17000
C687        C  0.31815181  0.69302261  0.56410129    -0.16200
C688        C  0.31340789  0.70517934  0.59078410     0.07900
C689        C  0.30657477  0.71820012  0.62234551     0.09700
C690        C  0.29756681  0.72886273  0.64857542    -0.17000
C691        C  0.18991252  0.76900010  0.63437565    -0.16200
C692        C  0.18306207  0.77486276  0.60574628     0.07900
C693        C  0.17904243  0.78569197  0.57251296     0.09700
C694        C  0.17615976  0.79823500  0.54550602    -0.17000
C695        C  0.29579928  0.65616192  0.71401836    -0.16200
C696        C  0.30057867  0.62863917  0.70572639     0.07900
C697        C  0.30249688  0.59595996  0.69588357     0.09700
C698        C  0.30427880  0.56866732  0.68576577    -0.17000
C699        C  0.19907228  0.64597778  0.76428998    -0.16200
C700        C  0.19323543  0.61991790  0.77622625     0.07900
C701        C  0.18865370  0.58993911  0.79236470     0.09700
C702        C  0.18484853  0.56493848  0.80723220    -0.17000
loop_ 
_geom_bond_atom_site_label_1 
_geom_bond_atom_site_label_2 
_geom_bond_distance 
_geom_bond_site_symmetry_2 
_ccdc_geom_bond_type 
O1            C9   1.262       .  A
O1          Co21   1.968       .  S
O2           C10   1.271       .  A
O2          Co22   1.989       .  S
O3           C11   1.306       .  A
O3          Co23   2.093       .  S
O4           C12   1.275       .  A
O4          Co24   2.024       .  S
O5           C11   1.268       .  A
O5          Co22   1.954       .  S
O6           C12   1.265       .  A
O6          Co21   1.955       .  S
O7           C10   1.271       .  A
O7          Co24   2.008       .  S
O8            C9   1.293       .  A
O8          Co23   2.085       .  S
C9          C695   1.443       .  S
C10         C686   1.441       .  S
C11         C690   1.436       .  S
C12         C671   1.434       .  S
O13          C26   1.267       .  A
O13         Co21   1.976       .  S
O14          C27   1.268       .  A
O14         Co22   1.998       .  S
O15          C28   1.280       .  A
O15         Co23   1.919       .  S
O16          C29   1.269       .  A
O16         Co24   1.983       .  S
O17          C29   1.271       .  A
O17         Co22   2.008       .  S
O18          C28   1.297       .  A
O18         Co21   2.092       .  S
O19          C26   1.275       .  A
O19         Co24   2.005       .  S
O20          C27   1.273       .  A
O20         Co23   2.001       .  S
Co21         O25   2.012       .  S
Co22         O25   2.028       .  S
Co23         O25   1.926       .  S
Co24         O25   2.047       .  S
C26         C675   1.432       .  S
C27         C691   1.444       .  S
C28         C699   1.441       .  S
C29         C679   1.438       .  S
O30          C38   1.278       .  A
O30         Co50   1.985       .  S
O31          C39   1.268       .  A
O31         Co51   1.988       .  S
O32          C40   1.262       .  A
O32         Co52   2.010       .  S
O33          C41   1.311       .  A
O33         Co53   2.138       .  S
O34          C40   1.262       .  A
O34         Co51   1.985       .  S
O35          C41   1.283       .  A
O35         Co50   1.889       .  S
O36          C39   1.264       .  A
O36         Co53   1.999       .  S
O37          C38   1.275       .  A
O37         Co52   2.017       .  S
C38         C670   1.443       .  S
C39         C650   1.444       .  S
C40         C643   1.441       .  S
C41         C655   1.438       .  S
O42          C55   1.250       .  A
O42         Co50   2.047       .  S
O43          C56   1.279       .  A
O43         Co51   2.019       .  S
O44          C57   1.274       .  A
O44         Co52   1.984       .  S
O45          C58   1.263       .  A
O45         Co53   1.989       .  S
O46          C58   1.263       .  A
O46         Co51   2.004       .  S
O47          C57   1.275       .  A
O47         Co50   2.014       .  S
O48          C55   1.246       .  A
O48         Co53   1.977       .  S
O49          C56   1.275       .  A
O49         Co52   1.977       .  S
Co50         O54   1.981       .  S
Co51         O54   2.078       .  S
Co52         O54   2.074       .  S
Co53         O54   2.114       .  S
C55         C659   1.445       .  S
C56         C639   1.434       .  S
C57         C663   1.432       .  S
C58         C651   1.440       .  S
O59          C67   1.280       .  A
O59         Co79   1.990       .  S
O60          C68   1.268       .  A
O60         Co80   1.991       .  S
O61          C69   1.262       .  A
O61         Co81   2.007       .  S
O62          C70   1.308       .  A
O62         Co82   2.128       .  S
O63          C69   1.262       .  A
O63         Co80   1.984       .  S
O64          C70   1.284       .  A
O64         Co79   1.899       .  S
O65          C68   1.264       .  A
O65         Co82   1.998       .  S
O66          C67   1.274       .  A
O66         Co81   2.012       .  S
C67         C634   1.445       .  S
C68         C615   1.444       .  S
C69         C614   1.442       .  S
C70         C627   1.441       .  S
O71          C84   1.251       .  A
O71         Co79   2.049       .  S
O72          C85   1.279       .  A
O72         Co80   2.022       .  S
O73          C86   1.276       .  A
O73         Co81   1.989       .  S
O74          C87   1.262       .  A
O74         Co82   1.984       .  S
O75          C87   1.263       .  A
O75         Co80   2.003       .  S
O76          C86   1.276       .  A
O76         Co79   2.014       .  S
O77          C84   1.246       .  A
O77         Co82   1.976       .  S
O78          C85   1.279       .  A
O78         Co81   1.984       .  S
Co79         O83   1.988       .  S
Co80         O83   2.080       .  S
Co81         O83   2.076       .  S
Co82         O83   2.113       .  S
C84         C626   1.447       .  S
C85         C610   1.442       .  S
C86         C638   1.436       .  S
C87         C619   1.438       .  S
C88         C606   1.447       .  S
C88          C89   1.408       .  A
C88          C93   1.409   1_564  A
C89         C599   1.450       .  S
C89          C90   1.408   1_554  A
C90         C587   1.445       .  S
C90          C91   1.407       .  A
C91         C583   1.450       .  S
C91          C92   1.408   1_565  A
C92         C598   1.447       .  S
C92          C93   1.408       .  A
C93         C594   1.447       .  S
C94         C611   1.449       .  S
C94          C95   1.399       .  A
C94          C99   1.414       .  A
C95          C96   1.396       .  A
C95         H100   1.086       .  S
C96         C603   1.435       .  S
C96          C97   1.397   1_565  A
C97          C98   1.401       .  A
C97         H101   1.085       .  S
C98         C579   1.452       .  S
C98          C99   1.414   1_545  A
C99         H102   1.083       .  S
C103        C647   1.452       .  S
C103        C104   1.398       .  A
C103        C108   1.414   1_556  A
C104        C105   1.396   1_556  A
C104        H109   1.085       .  S
C105        C591   1.436       .  S
C105        C106   1.397       .  A
C106        C107   1.401       .  A
C106        H110   1.085       .  S
C107        C578   1.452       .  S
C107        C108   1.415       .  A
C108        H111   1.084       .  S
C112        C571   1.450       .  S
C112        C113   1.412       .  A
C112        C117   1.402       .  A
C113        C114   1.411   1_545  A
C113        H118   1.082       .  S
C114        C683   1.448       .  S
C114        C115   1.399       .  A
C115        C116   1.397   1_565  A
C115        H119   1.085       .  S
C116        C586   1.437       .  S
C116        C117   1.399       .  A
C117        H120   1.086       .  S
C121        C658   1.443       .  S
C121        C122   1.407       .  A
C121        C126   1.399       .  A
C122        C123   1.408       .  A
C122        H127   1.084       .  S
C123        C570   1.443       .  S
C123        C124   1.400       .  A
C124        C125   1.398       .  A
C124        H128   1.085       .  S
C125        C595   1.435       .  S
C125        C126   1.396       .  A
C126        H129   1.084       .  S
C130        C566   1.458       .  S
C130        C131   1.416       .  A
C130        C135   1.402       .  A
C131        C132   1.416       .  A
C131        H136   1.084       .  S
C132        C631   1.455       .  S
C132        C133   1.400       .  A
C133        C134   1.398       .  A
C133        H137   1.085       .  S
C134        C602   1.439       .  S
C134        C135   1.399       .  A
C135        H138   1.085       .  S
C139        C559   1.442       .  S
C139        C140   1.407   1_554  A
C139        C144   1.400       .  A
C140        C141   1.406       .  A
C140        H145   1.084   1_556  S
C141        C674   1.440       .  S
C141        C142   1.398       .  A
C142        C143   1.395       .  A
C142        H146   1.085       .  S
C143        C590   1.433       .  S
C143        C144   1.398   1_556  A
C144        H147   1.084       .  S
C148        C539   1.447       .  S
C148        C149   1.405   1_554  A
C148        C153   1.405       .  A
C149        C535   1.449       .  S
C149        C150   1.408       .  A
C150        C555   1.441       .  S
C150        C151   1.409   1_456  A
C151        C551   1.452       .  S
C151        C152   1.408       .  A
C152        C547   1.446       .  S
C152        C153   1.408   1_655  A
C153        C546   1.444       .  S
C154        C678   1.441       .  S
C154        C155   1.399       .  A
C154        C159   1.408       .  A
C155        C156   1.397       .  A
C155        H160   1.084       .  S
C156        C542   1.434       .  S
C156        C157   1.396   1_556  A
C157        C158   1.399       .  A
C157        H161   1.086       .  S
C158        C531   1.442       .  S
C158        C159   1.407   1_554  A
C159        H162   1.084       .  S
C163        C702   1.447       .  S
C163        C164   1.403       .  A
C163        C168   1.409       .  A
C164        C165   1.400       .  A
C164        H169   1.086       .  S
C165        C538   1.437       .  S
C165        C166   1.397       .  A
C166        C167   1.398       .  A
C166        H170   1.085       .  S
C167        C530   1.445       .  S
C167        C168   1.408       .  A
C168        H171   1.083       .  S
C172        C618   1.452       .  S
C172        C173   1.415   1_655  A
C172        C177   1.400       .  A
C173        C174   1.414       .  A
C173        H178   1.084       .  S
C174        C523   1.447       .  S
C174        C175   1.397       .  A
C175        C176   1.393       .  A
C175        H179   1.085       .  S
C176        C543   1.432       .  S
C176        C177   1.396   1_455  A
C177        H180   1.085       .  S
C181        C630   1.447       .  S
C181        C182   1.410       .  A
C181        C186   1.400       .  A
C182        C183   1.410       .  A
C182        H187   1.084       .  S
C183        C519   1.446       .  S
C183        C184   1.399       .  A
C184        C185   1.397       .  A
C184        H188   1.085       .  S
C185        C550   1.435       .  S
C185        C186   1.397       .  A
C186        H189   1.085       .  S
C190        C518   1.441       .  S
C190        C191   1.398       .  A
C190        C195   1.408   1_455  A
C191        C192   1.394       .  A
C191        H196   1.086       .  S
C192        C558   1.430       .  S
C192        C193   1.396   1_455  A
C193        C194   1.398       .  A
C193        H197   1.084       .  S
C194        C642   1.442       .  S
C194        C195   1.409       .  A
C195        H198   1.084       .  S
C199        C514   1.448       .  S
C199        C200   1.403       .  A
C199        C204   1.408       .  A
C200        C201   1.401       .  A
C200        H205   1.084       .  S
C201        C554   1.441       .  S
C201        C202   1.400   1_554  A
C202        C203   1.401       .  A
C202        H206   1.086       .  S
C203        C654   1.447       .  S
C203        C204   1.408   1_556  A
C204        H207   1.084       .  S
C208        C503   1.441       .  S
C208        C209   1.408       .  A
C208        C213   1.407       .  A
C209        C507   1.450       .  S
C209        C210   1.406       .  A
C210        C494   1.444       .  S
C210        C211   1.407       .  A
C211        C487   1.448       .  S
C211        C212   1.406       .  A
C212        C495   1.441       .  S
C212        C213   1.406       .  A
C213        C499   1.451       .  S
C214        C662   1.453       .  S
C214        C215   1.402       .  A
C214        C219   1.413       .  A
C215        C216   1.399       .  A
C215        H220   1.084       .  S
C216        C510   1.439       .  S
C216        C217   1.397       .  A
C217        C218   1.400       .  A
C217        H221   1.085       .  S
C218        C483   1.451       .  S
C218        C219   1.412       .  A
C219        H222   1.085       .  S
C223        C479   1.445       .  S
C223        C224   1.408       .  A
C223        C228   1.399       .  A
C224        C225   1.408       .  A
C224        H229   1.084       .  S
C225        C687   1.443       .  S
C225        C226   1.400       .  A
C226        C227   1.398       .  A
C226        H230   1.085       .  S
C227        C490   1.435       .  S
C227        C228   1.397       .  A
C228        H231   1.086       .  S
C232        C623   1.455       .  S
C232        C233   1.416       .  A
C232        C237   1.401       .  A
C233        C234   1.416       .  A
C233        H238   1.086       .  S
C234        C475   1.459       .  S
C234        C235   1.402       .  A
C235        C236   1.399       .  A
C235        H239   1.084       .  S
C236        C502   1.439       .  S
C236        C237   1.398       .  A
C237        H240   1.085       .  S
C241        C471   1.431       .  S
C241        C242   1.405       .  A
C241        C246   1.395       .  A
C242        C243   1.405       .  A
C242        H247   1.085       .  S
C243        C635   1.440       .  S
C243        C244   1.400       .  A
C244        C245   1.397       .  A
C244        H248   1.084       .  S
C245        C498   1.429       .  S
C245        C246   1.393       .  A
C246        H249   1.085       .  S
C250        C698   1.449       .  S
C250        C251   1.414       .  A
C250        C255   1.400       .  A
C251        C252   1.413       .  A
C251        H256   1.081       .  S
C252        C467   1.447       .  S
C252        C253   1.397       .  A
C253        C254   1.394       .  A
C253        H257   1.086       .  S
C254        C491   1.432       .  S
C254        C255   1.396       .  A
C255        H258   1.086       .  S
C259        C666   1.438       .  S
C259        C260   1.398       .  A
C259        C264   1.405       .  A
C260        C261   1.395       .  A
C260        H265   1.085       .  S
C261        C506   1.430       .  S
C261        C262   1.396       .  A
C262        C263   1.398       .  A
C262        H266   1.086       .  S
C263        C463   1.438       .  S
C263        C264   1.406       .  A
C264        H267   1.084       .  S
C268        C455   1.444   1_565  S
C268        C269   1.407       .  A
C268        C273   1.407   1_465  A
C269        C459   1.450       .  S
C269        C270   1.409   1_455  A
C270        C442   1.446       .  S
C270        C271   1.409       .  A
C271        C443   1.449       .  S
C271        C272   1.408   1_565  A
C272        C450   1.445       .  S
C272        C273   1.407       .  A
C273        C451   1.451       .  S
C274        C435   1.445       .  S
C274        C275   1.401       .  A
C274        C279   1.408       .  A
C275        C276   1.399       .  A
C275        H280   1.084       .  S
C276        C454   1.438       .  S
C276        C277   1.399   1_455  A
C277        C278   1.401       .  A
C277        H281   1.085       .  S
C278        C646   1.446       .  S
C278        C279   1.407   1_655  A
C279        H282   1.085       .  S
C283        C431   1.443       .  S
C283        C284   1.409       .  A
C283        C288   1.400       .  A
C284        C285   1.408   1_545  A
C284        H289   1.081       .  S
C285        C682   1.443       .  S
C285        C286   1.397       .  A
C286        C287   1.396   1_565  A
C286        H290   1.086       .  S
C287        C458   1.433       .  S
C287        C288   1.397       .  A
C288        H291   1.087       .  S
C292        C694   1.451       .  S
C292        C293   1.412       .  A
C292        C297   1.401       .  A
C293        C294   1.413       .  A
C293        H298   1.084       .  S
C294        C430   1.451       .  S
C294        C295   1.401       .  A
C295        C296   1.398       .  A
C295        H299   1.085       .  S
C296        C462   1.438       .  S
C296        C297   1.398       .  A
C297        H300   1.085       .  S
C301        C667   1.450       .  S
C301        C302   1.400       .  A
C301        C306   1.413       .  A
C302        C303   1.397       .  A
C302        H307   1.085       .  S
C303        C447   1.433       .  S
C303        C304   1.394       .  A
C304        C305   1.398       .  A
C304        H308   1.085       .  S
C305        C423   1.445       .  S
C305        C306   1.412       .  A
C306        H309   1.084       .  S
C310        C419   1.451       .  S
C310        C311   1.401       .  A
C310        C315   1.413   1_545  A
C311        C312   1.398   1_545  A
C311        H316   1.084       .  S
C312        C446   1.437       .  S
C312        C313   1.397       .  A
C313        C314   1.400       .  A
C313        H317   1.085       .  S
C314        C607   1.451       .  S
C314        C315   1.413       .  A
C315        H318   1.086       .  S
C319        C622   1.445       .  S
C319        C320   1.399       .  A
C319        C324   1.409   1_655  A
C320        C321   1.397   1_655  A
C320        H325   1.085       .  S
C321        C439   1.435       .  S
C321        C322   1.398       .  A
C322        C323   1.400       .  A
C322        H326   1.084       .  S
C323        C415   1.445       .  S
C323        C324   1.409       .  A
C324        H327   1.084       .  S
O328        C336   1.279       .  A
O328       Co348   1.914       .  S
O329        C337   1.268       .  A
O329       Co349   1.983       .  S
O330        C338   1.267       .  A
O330       Co350   1.980       .  S
O331        C339   1.268       .  A
O331       Co351   1.998       .  S
O332        C338   1.275       .  A
O332       Co349   2.008       .  S
O333        C339   1.273       .  A
O333       Co348   2.001       .  S
O334        C337   1.271       .  A
O334       Co351   2.011       .  S
O335        C336   1.297       .  A
O335       Co350   2.091       .  S
C336        C434   1.437       .  S
C337        C470   1.442       .  S
C338        C438   1.436       .  S
C339        C486   1.444       .  S
O340        C353   1.305       .  A
O340       Co348   2.090       .  S
O341        C354   1.274       .  A
O341       Co349   2.023       .  S
O342        C355   1.262       .  A
O342       Co350   1.968       .  S
O343        C356   1.271       .  A
O343       Co351   1.986       .  S
O344        C356   1.272       .  A
O344       Co349   2.008       .  S
O345        C355   1.293       .  A
O345       Co348   2.087       .  S
O346        C353   1.268       .  A
O346       Co351   1.956       .  S
O347        C354   1.265       .  A
O347       Co350   1.955       .  S
Co348       O352   1.927       .  S
Co349       O352   2.047       .  S
Co350       O352   2.015       .  S
Co351       O352   2.035       .  S
C353        C567   1.436       .  S
C354        C515   1.434       .  S
C355        C574   1.444       .  S
C356        C527   1.439       .  S
O357        C365   1.297       .  A
O357       Co377   2.094       .  S
O358        C366   1.270       .  A
O358       Co378   2.003       .  S
O359        C367   1.272       .  A
O359       Co379   1.997       .  S
O360        C368   1.274       .  A
O360       Co380   2.004       .  S
O361        C367   1.268       .  A
O361       Co378   1.996       .  S
O362        C368   1.267       .  A
O362       Co377   1.982       .  S
O363        C366   1.271       .  A
O363       Co380   1.989       .  S
O364        C365   1.279       .  A
O364       Co379   1.922       .  S
C365        C422   1.446       .  S
C366        C522   1.439       .  S
C367        C511   1.440       .  S
C368        C426   1.437       .  S
O369        C382   1.265       .  A
O369       Co377   1.952       .  S
O370        C383   1.273       .  A
O370       Co378   1.964       .  S
O371        C384   1.292       .  A
O371       Co379   2.080       .  S
O372        C385   1.270       .  A
O372       Co380   2.005       .  S
O373        C385   1.278       .  A
O373       Co378   2.006       .  S
O374        C384   1.263       .  A
O374       Co377   1.972       .  S
O375        C382   1.276       .  A
O375       Co380   2.025       .  S
O376        C383   1.307       .  A
O376       Co379   2.098       .  S
Co377       O381   2.022       .  S
Co378       O381   2.036       .  S
Co379       O381   1.930       .  S
Co380       O381   2.046       .  S
C382        C466   1.432       .  S
C383        C575   1.445       .  S
C384        C582   1.447       .  S
C385        C478   1.453       .  S
O386        C394   1.257       .  A
O386       Co406   1.940       .  S
O387        C395   1.270       .  A
O387       Co407   1.978       .  S
O388        C396   1.262       .  A
O388       Co408   2.003       .  S
O389        C397   1.274       .  A
O389       Co409   2.043       .  S
O390        C396   1.265       .  A
O390       Co407   1.988       .  S
O391        C397   1.257       .  A
O391       Co406   1.946       .  S
O392        C395   1.273       .  A
O392       Co409   2.014       .  S
O393        C394   1.274       .  A
O393       Co408   2.028       .  S
C394        C474   1.422       .  S
C395        C526   1.438       .  S
C396        C482   1.440       .  S
C397        C534   1.438       .  S
O398        C411   1.276       .  A
O398       Co406   2.023       .  S
O399        C412   1.278       .  A
O399       Co407   2.019       .  S
O400        C413   1.283       .  A
O400       Co408   2.014       .  S
O401        C414   1.267       .  A
O401       Co409   1.986       .  S
O402        C414   1.264       .  A
O402       Co407   2.002       .  S
O403        C413   1.274       .  A
O403       Co406   2.010       .  S
O404        C411   1.272       .  A
O404       Co409   1.980       .  S
O405        C412   1.279       .  A
O405       Co408   1.988       .  S
Co406       O410   1.960       .  S
Co407       O410   2.055       .  S
Co408       O410   2.118       .  S
Co409       O410   2.099       .  S
C411        C562   1.436       .  S
C412        C427   1.441       .  S
C413        C563   1.453       .  S
C414        C418   1.438       .  S
C415        C416   1.209       .  T
C416        C417   1.418       .  S
C417        C418   1.209       .  T
C419        C420   1.213       .  T
C420        C421   1.424       .  S
C421        C422   1.213       .  T
C423        C424   1.209       .  T
C424        C425   1.418       .  S
C425        C426   1.209       .  T
C427        C428   1.211       .  T
C428        C429   1.422       .  S
C429        C430   1.212       .  T
C431        C432   1.208       .  T
C432        C433   1.415       .  S
C433        C434   1.208       .  T
C435        C436   1.209       .  T
C436        C437   1.416       .  S
C437        C438   1.208       .  T
C439        C440   1.202   1_455  T
C440        C441   1.406       .  S
C441        C442   1.202       .  T
C443        C444   1.204       .  T
C444        C445   1.409       .  S
C445        C446   1.204       .  T
C447        C448   1.201       .  T
C448        C449   1.405       .  S
C449        C450   1.202       .  T
C451        C452   1.204       .  T
C452        C453   1.409       .  S
C453        C454   1.204   1_655  T
C455        C456   1.201       .  T
C456        C457   1.404       .  S
C457        C458   1.201       .  T
C459        C460   1.205       .  T
C460        C461   1.410       .  S
C461        C462   1.205       .  T
C463        C464   1.205       .  T
C464        C465   1.410       .  S
C465        C466   1.204       .  T
C467        C468   1.211       .  T
C468        C469   1.420       .  S
C469        C470   1.210       .  T
C471        C472   1.200       .  T
C472        C473   1.402       .  S
C473        C474   1.198       .  T
C475        C476   1.218       .  T
C476        C477   1.432       .  S
C477        C478   1.218       .  T
C479        C480   1.209       .  T
C480        C481   1.418       .  S
C481        C482   1.209       .  T
C483        C484   1.213       .  T
C484        C485   1.423       .  S
C485        C486   1.212       .  T
C487        C488   1.203       .  T
C488        C489   1.407       .  S
C489        C490   1.203       .  T
C491        C492   1.201       .  T
C492        C493   1.403       .  S
C493        C494   1.201       .  T
C495        C496   1.199       .  T
C496        C497   1.401       .  S
C497        C498   1.199       .  T
C499        C500   1.205       .  T
C500        C501   1.410       .  S
C501        C502   1.205       .  T
C503        C504   1.199       .  T
C504        C505   1.401       .  S
C505        C506   1.199       .  T
C507        C508   1.205       .  T
C508        C509   1.410       .  S
C509        C510   1.205       .  T
C511        C512   1.210       .  T
C512        C513   1.419       .  S
C513        C514   1.210       .  T
C515        C516   1.206       .  T
C516        C517   1.413       .  S
C517        C518   1.206       .  T
C519        C520   1.210       .  T
C520        C521   1.419       .  S
C521        C522   1.209       .  T
C523        C524   1.210       .  T
C524        C525   1.419       .  S
C525        C526   1.209       .  T
C527        C528   1.209       .  T
C528        C529   1.418       .  S
C529        C530   1.209       .  T
C531        C532   1.207       .  T
C532        C533   1.415       .  S
C533        C534   1.208       .  T
C535        C536   1.204       .  T
C536        C537   1.409       .  S
C537        C538   1.204       .  T
C539        C540   1.202       .  T
C540        C541   1.406       .  S
C541        C542   1.202   1_554  T
C543        C544   1.200       .  T
C544        C545   1.403       .  S
C545        C546   1.201       .  T
C547        C548   1.202       .  T
C548        C549   1.406       .  S
C549        C550   1.202       .  T
C551        C552   1.206       .  T
C552        C553   1.412       .  S
C553        C554   1.206       .  T
C555        C556   1.200       .  T
C556        C557   1.402       .  S
C557        C558   1.200       .  T
C559        C560   1.207       .  T
C560        C561   1.414       .  S
C561        C562   1.207       .  T
C563        C564   1.217       .  T
C564        C565   1.431       .  S
C565        C566   1.217       .  T
C567        C568   1.206       .  T
C568        C569   1.414       .  S
C569        C570   1.207       .  T
C571        C572   1.212       .  T
C572        C573   1.423       .  S
C573        C574   1.212       .  T
C575        C576   1.213       .  T
C576        C577   1.424       .  S
C577        C578   1.213       .  T
C579        C580   1.214       .  T
C580        C581   1.426       .  S
C581        C582   1.214       .  T
C583        C584   1.204       .  T
C584        C585   1.409   1_565  S
C585        C586   1.204       .  T
C587        C588   1.201       .  T
C588        C589   1.405       .  S
C589        C590   1.201       .  T
C591        C592   1.203   1_554  T
C592        C593   1.407       .  S
C593        C594   1.203       .  T
C595        C596   1.202       .  T
C596        C597   1.406       .  S
C597        C598   1.203       .  T
C599        C600   1.205       .  T
C600        C601   1.410       .  S
C601        C602   1.205       .  T
C603        C604   1.203       .  T
C604        C605   1.407       .  S
C605        C606   1.203       .  T
C607        C608   1.213       .  T
C608        C609   1.423       .  S
C609        C610   1.212       .  T
C611        C612   1.212       .  T
C612        C613   1.421       .  S
C613        C614   1.211       .  T
C615        C616   1.213       .  T
C616        C617   1.425       .  S
C617        C618   1.214       .  T
C619        C620   1.208       .  T
C620        C621   1.417       .  S
C621        C622   1.209       .  T
C623        C624   1.215       .  T
C624        C625   1.427       .  S
C625        C626   1.214       .  T
C627        C628   1.210       .  T
C628        C629   1.419       .  S
C629        C630   1.210       .  T
C631        C632   1.215       .  T
C632        C633   1.427       .  S
C633        C634   1.214       .  T
C635        C636   1.206       .  T
C636        C637   1.413       .  S
C637        C638   1.206       .  T
C639        C640   1.207       .  T
C640        C641   1.415       .  S
C641        C642   1.208       .  T
C643        C644   1.210       .  T
C644        C645   1.419       .  S
C645        C646   1.210       .  T
C647        C648   1.214       .  T
C648        C649   1.425       .  S
C649        C650   1.213       .  T
C651        C652   1.210       .  T
C652        C653   1.419       .  S
C653        C654   1.210       .  T
C655        C656   1.208       .  T
C656        C657   1.416       .  S
C657        C658   1.208       .  T
C659        C660   1.213       .  T
C660        C661   1.425       .  S
C661        C662   1.214       .  T
C663        C664   1.204       .  T
C664        C665   1.410       .  S
C665        C666   1.205       .  T
C667        C668   1.213       .  T
C668        C669   1.424       .  S
C669        C670   1.212       .  T
C671        C672   1.206       .  T
C672        C673   1.412       .  S
C673        C674   1.206       .  T
C675        C676   1.205       .  T
C676        C677   1.413       .  S
C677        C678   1.207       .  T
C679        C680   1.208       .  T
C680        C681   1.416       .  S
C681        C682   1.208       .  T
C683        C684   1.211       .  T
C684        C685   1.420       .  S
C685        C686   1.210       .  T
C687        C688   1.207       .  T
C688        C689   1.414       .  S
C689        C690   1.206       .  T
C691        C692   1.212       .  T
C692        C693   1.423       .  S
C693        C694   1.213       .  T
C695        C696   1.211       .  T
C696        C697   1.422       .  S
C697        C698   1.212       .  T
C699        C700   1.210       .  T
C700        C701   1.419       .  S
C701        C702   1.210       .  T
