geometry optimzed in LAMMPS
_audit_creation_date              2020-11-30 
_audit_creation_method            'lammps2cif' 
_symmetry_space_group_name_H-M    'P1' 
_symmetry_Int_Tables_number       1 
_symmetry_cell_setting            triclinic 
loop_ 
_symmetry_equiv_pos_as_xyz 
  x,y,z 
_cell_length_a                    40.85227828 
_cell_length_b                    40.5568401048303 
_cell_length_c                    40.77840410967524 
_cell_angle_alpha                 90.3439464550846 
_cell_angle_beta                  89.81960859840362 
_cell_angle_gamma                 90.23654889095626 
loop_ 
_atom_site_label 
_atom_site_type_symbol 
_atom_site_fract_x 
_atom_site_fract_y 
_atom_site_fract_z 
_atom_site_charge 
O1          O  0.53569617  0.46169161  0.44554749    -0.76800
C2          C  0.43416600  0.50473737  0.43777504     0.84300
O3          O  0.52419080  0.56835155  0.46410204    -0.77900
O4          O  0.42035264  0.54684422  0.50995671    -0.79400
O5          O  0.45720721  0.43392220  0.54103704    -0.79200
O6          O  0.53190290  0.43620600  0.49362505    -0.77800
Zn7        Zn  0.49641189  0.49326903  0.44501864     1.55700
O8          O  0.42525785  0.47738145  0.54702997    -0.79200
Cd9        Cd  0.49182963  0.46061870  0.51541678     1.59700
Cd10       Cd  0.50495944  0.54223446  0.50666019     1.59600
O11         O  0.50568793  0.48689918  0.55460326    -0.79200
O12         O  0.48181093  0.50124401  0.49006391    -1.89700
Cd13       Cd  0.43452762  0.50166280  0.50177221     1.59900
O14         O  0.54412135  0.51658745  0.53317252    -0.79200
O15         O  0.41399377  0.49129632  0.45754566    -0.77800
C16         C  0.52495406  0.56010591  0.43352578     0.84700
C17         C  0.54769577  0.44290233  0.46744919     0.84400
O18         O  0.45380536  0.48562053  0.42248904    -0.76800
C19         C  0.43689097  0.45050348  0.55812494     0.85200
O20         O  0.51434391  0.53248990  0.42374373    -0.76900
C21         C  0.53543190  0.49070196  0.54900526     0.85300
C22         C  0.43397135  0.57033129  0.52479213     0.85700
O23         O  0.46537084  0.57175733  0.52958106    -0.79300
O24         O  0.46956146  0.19379798  0.20510095    -0.76800
C25         C  0.56852100  0.19026599  0.25565872     0.84300
O26         O  0.47750530  0.21674512  0.31365086    -0.77900
O27         O  0.57914028  0.27001695  0.28932136    -0.79400
O28         O  0.53854981  0.28841329  0.17719114    -0.79200
O29         O  0.46430858  0.24517798  0.18658785    -0.77800
Zn30       Zn  0.50615793  0.19722389  0.23895981     1.55700
O31         O  0.57629327  0.29394995  0.21583814    -0.79200
Cd32       Cd  0.50456622  0.26816814  0.20773808     1.59700
Cd33       Cd  0.49503041  0.25955713  0.28721835     1.59600
O34         O  0.49049848  0.30897559  0.23153963    -0.79200
O35         O  0.51842061  0.24284657  0.24655776    -1.89700
Cd36       Cd  0.56604060  0.25377917  0.24595886     1.59900
O37         O  0.45467969  0.28538827  0.26314448    -0.79200
O38         O  0.58906687  0.20955820  0.24227788    -0.77800
C39         C  0.47697148  0.18622971  0.30481661     0.84700
C40         C  0.45360507  0.21586713  0.18972864     0.84400
O41         O  0.54921138  0.17465861  0.23646352    -0.76800
C42         C  0.56222796  0.30416117  0.19004030     0.85200
O43         O  0.48685223  0.17698594  0.27701404    -0.76900
C44         C  0.46116225  0.30237414  0.23743092     0.85300
C45         C  0.56489792  0.28280922  0.31359201     0.85700
O46         O  0.53331151  0.28414610  0.31629375    -0.79300
C47         C  0.83344135  0.75639458  0.83714908     0.81900
N48         N  0.80479903  0.76894691  0.84913223    -0.76400
C49         C  0.78904054  0.79406850  0.83364007     0.84400
N50         N  0.80284136  0.80719797  0.80603230    -0.76300
C51         C  0.83134584  0.79483836  0.79325467     0.84500
N52         N  0.84673834  0.76971189  0.80932525    -0.78000
C53         C  0.78750941  0.91835390  0.95477957     0.81900
N54         N  0.79835008  0.94816986  0.94339250    -0.76400
C55         C  0.82396381  0.96422790  0.95818042     0.84400
N56         N  0.83943575  0.94934479  0.98376569    -0.76300
C57         C  0.82936894  0.91938049  0.99510344     0.84500
N58         N  0.80350282  0.90398479  0.98035621    -0.78000
C59         C  0.95163644  0.79570203  0.00312351     0.81900
N60         N  0.93748612  0.76742312  0.99101265    -0.76400
C61         C  0.95059879  0.75093570  0.96458401     0.84400
N62         N  0.97767892  0.76389970  0.94952200    -0.76300
C63         C  0.99239996  0.79210482  0.96084444     0.84500
N64         N  0.97863212  0.80820839  0.98719554    -0.78000
C65         C  0.94495045  0.92194068  0.79545598     0.81900
N66         N  0.93308340  0.95002377  0.80971610    -0.76400
C67         C  0.94594219  0.96162954  0.83846247     0.84400
N68         N  0.97004118  0.94397671  0.85355968    -0.76300
C69         C  0.98175492  0.91563412  0.83965401     0.84500
N70         N  0.96898337  0.90485142  0.81076428    -0.78000
N71         N  0.02231421  0.85351719  0.89664845    -0.34900
N72         N  0.07524839  0.81061122  0.91994549    -0.55500
N73         N  0.11803385  0.84078644  0.87104103    -0.34900
N74         N  0.06572887  0.88020846  0.84529241    -0.55500
C75         C  0.00493715  0.83138510  0.91480844     0.28700
C76         C  0.00086006  0.87040384  0.87755009     0.28700
C77         C  0.13654551  0.81608545  0.88243494     0.28700
C78         C  0.13048959  0.84909759  0.84156195     0.28700
C79         C  0.05192439  0.80300599  0.94259170     0.37300
C80         C  0.10494680  0.80173765  0.93212468     0.37300
C81         C  0.04084871  0.90192752  0.84316495     0.37300
C82         C  0.09140684  0.89338199  0.82872044     0.37300
C83         C  0.97201777  0.83464610  0.90713915    -0.20200
C84         C  0.96943136  0.85917458  0.88397899    -0.20200
C85         C  0.16071233  0.80803170  0.85984871    -0.20200
C86         C  0.15675429  0.82885151  0.83379759    -0.20200
C87         C  0.06692193  0.78797354  0.96907082    -0.21200
C88         C  0.10044014  0.78775611  0.96274344    -0.21200
C89         C  0.05062425  0.92886691  0.82466305    -0.21200
C90         C  0.08274013  0.92350951  0.81564976    -0.21200
C91         C  0.01747956  0.80940377  0.93919803    -0.16600
C92         C  0.00872554  0.89633582  0.85518326    -0.16600
C93         C  0.12189141  0.87750387  0.82425685    -0.16600
C94         C  0.13534290  0.80476578  0.91465312    -0.16600
H95         H  0.95179455  0.82076348  0.91713886     0.16300
H96         H  0.94690185  0.86766005  0.87302935     0.16300
H97         H  0.17996456  0.79000248  0.86259303     0.16300
H98         H  0.17240555  0.83009958  0.81236550     0.16300
H99         H  0.05504062  0.77875886  0.99095143     0.14600
H100        H  0.11916858  0.77780783  0.97851407     0.14600
H101        H  0.03604531  0.95005537  0.81815192     0.14600
H102        H  0.09782643  0.93968967  0.80089884     0.14600
H103        H  0.04728872  0.85801188  0.89817986     0.27900
H104        H  0.10063271  0.85371199  0.88455734     0.27900
N105        N  0.89048319  0.86024893  0.03510123    -0.34900
N106        N  0.92865839  0.82986439  0.08868701    -0.55500
N107        N  0.89321138  0.87264723  0.13423366    -0.34900
N108        N  0.85758603  0.90473394  0.08188944    -0.55500
C109        C  0.91210549  0.84182716  0.01716752     0.28700
C110        C  0.87357295  0.88006424  0.01413802     0.28700
C111        C  0.91831396  0.86149543  0.15239784     0.28700
C112        C  0.88303955  0.90083774  0.14869752     0.28700
C113        C  0.93795522  0.80973744  0.06349380     0.37300
C114        C  0.93639846  0.81500189  0.11763787     0.37300
C115        C  0.83954683  0.91178900  0.05510801     0.37300
C116        C  0.84203706  0.91815885  0.10814593     0.37300
C117        C  0.90854048  0.85013201  0.98437841    -0.20200
C118        C  0.88444538  0.87382987  0.98249567    -0.20200
C119        C  0.92474761  0.88324838  0.17800543    -0.20200
C120        C  0.90232536  0.90810975  0.17571926    -0.20200
C121        C  0.95259787  0.78196582  0.07672668    -0.21200
C122        C  0.95119310  0.78507374  0.11079757    -0.21200
C123        C  0.81254308  0.93039726  0.06442299    -0.21200
C124        C  0.81403340  0.93424463  0.09806573    -0.21200
C125        C  0.93373181  0.81646654  0.02897646    -0.16600
C126        C  0.84784757  0.90284659  0.02233869    -0.16600
C127        C  0.85439472  0.91769509  0.14053426    -0.16600
C128        C  0.93182254  0.82990822  0.14946963    -0.16600
H129        H  0.92164445  0.83992960  0.96368428     0.16300
H130        H  0.87573761  0.88491851  0.96016928     0.16300
H131        H  0.94294342  0.88073922  0.19706447     0.16300
H132        H  0.89977387  0.92863116  0.19261902     0.16300
H133        H  0.96286298  0.76137063  0.06325654     0.14600
H134        H  0.96064348  0.76770665  0.12841006     0.14600
H135        H  0.79372801  0.94018968  0.04863571     0.14600
H136        H  0.79686779  0.94776915  0.11324270     0.14600
H137        H  0.88659821  0.85848858  0.05999110     0.27900
H138        H  0.88139180  0.85982482  0.11554083     0.27900
N139        N  0.88927138  0.85894646  0.75733030    -0.34900
N140        N  0.85747525  0.82035633  0.70676318    -0.55500
N141        N  0.89404393  0.85929812  0.65715591    -0.34900
N142        N  0.92321594  0.90024579  0.70726231    -0.55500
C143        C  0.86671392  0.84239051  0.77570100     0.28700
C144        C  0.90149758  0.88385014  0.77606107     0.28700
C145        C  0.87072125  0.84430903  0.63899901     0.28700
C146        C  0.90480375  0.88529855  0.63939473     0.28700
C147        C  0.84685153  0.80270585  0.73296611     0.37300
C148        C  0.84979110  0.80305549  0.67927358     0.37300
C149        C  0.93840786  0.91141243  0.73467017     0.37300
C150        C  0.94031881  0.91165989  0.68096020     0.37300
C151        C  0.86479251  0.85708718  0.80644077    -0.20200
C152        C  0.88656366  0.88301595  0.80667911    -0.20200
C153        C  0.86655752  0.86108196  0.60969255    -0.20200
C154        C  0.88799313  0.88686596  0.60996929    -0.20200
C155        C  0.83182316  0.77400810  0.72194967    -0.21200
C156        C  0.83374649  0.77419168  0.68799727    -0.21200
C157        C  0.96520745  0.93055911  0.72567792    -0.21200
C158        C  0.96639791  0.93070889  0.69169567    -0.21200
C159        C  0.84898429  0.81341397  0.76634596    -0.16600
C160        C  0.92742013  0.90587765  0.76747073    -0.16600
C161        C  0.93096626  0.90628431  0.64771749    -0.16600
C162        C  0.85472360  0.81458198  0.64667220    -0.16600
H163        H  0.84957893  0.84978099  0.82688801     0.16300
H164        H  0.89107433  0.89921418  0.82734415     0.16300
H165        H  0.84987201  0.85533688  0.58989527     0.16300
H166        H  0.89085156  0.90468649  0.59052203     0.16300
H167        H  0.82031685  0.75516075  0.73677485     0.14600
H168        H  0.82385982  0.75559744  0.67160810     0.14600
H169        H  0.98196165  0.94336024  0.74190450     0.14600
H170        H  0.98413482  0.94359270  0.67666787     0.14600
H171        H  0.89755176  0.85259197  0.73409032     0.27900
H172        H  0.90366615  0.85071266  0.67907655     0.27900
N173        N  0.89102316  0.71744653  0.90051279    -0.34900
N174        N  0.84758746  0.67011878  0.86798520    -0.55500
N175        N  0.87393978  0.61846309  0.90951439    -0.34900
N176        N  0.91536596  0.66521735  0.94485724    -0.55500
C177        C  0.87182352  0.73813541  0.88259858     0.28700
C178        C  0.90709801  0.73582122  0.92355114     0.28700
C179        C  0.84681556  0.60379511  0.89738793     0.28700
C180        C  0.88271510  0.60108078  0.93613332     0.28700
C181        C  0.84251197  0.69617837  0.84804019     0.37300
C182        C  0.83437070  0.64325916  0.85305949     0.37300
C183        C  0.93604163  0.69014989  0.95346031     0.37300
C184        C  0.92831375  0.63632949  0.95565825     0.37300
C185        C  0.87650951  0.77000178  0.89401069    -0.20200
C186        C  0.89823007  0.76855649  0.91974417    -0.20200
C187        C  0.83788080  0.57729404  0.91684882    -0.20200
C188        C  0.86061870  0.57558023  0.94140433    -0.20200
C189        C  0.82558130  0.68583362  0.82036513    -0.21200
C190        C  0.82065142  0.65229137  0.82342716    -0.21200
C191        C  0.96223492  0.67697241  0.97052975    -0.21200
C192        C  0.95755602  0.64298922  0.97155995    -0.21200
C193        C  0.85072572  0.72942719  0.85576152    -0.16600
C194        C  0.93070431  0.72451981  0.94697576    -0.16600
C195        C  0.91248808  0.60479562  0.95269256    -0.16600
C196        C  0.83221953  0.61149241  0.86733948    -0.16600
H197        H  0.86574295  0.79219565  0.88458858     0.16300
H198        H  0.90646534  0.78945292  0.93405824     0.16300
H199        H  0.81765694  0.56036758  0.91312636     0.16300
H200        H  0.86152412  0.55700374  0.96032183     0.16300
H201        H  0.81734978  0.70093287  0.80023251     0.14600
H202        H  0.80768544  0.63655473  0.80626932     0.14600
H203        H  0.98269853  0.69040240  0.98093775     0.14600
H204        H  0.97352365  0.62539535  0.98316681     0.14600
H205        H  0.89398543  0.69239438  0.89652742     0.27900
H206        H  0.88764100  0.63691673  0.89831770     0.27900
N207        N  0.75197501  0.85591713  0.89373751    -0.34900
N208        N  0.70203539  0.81346545  0.86195177    -0.55500
N209        N  0.65309301  0.84620957  0.90215300    -0.34900
N210        N  0.70227693  0.88627100  0.93583114    -0.55500
C211        C  0.77143841  0.83466604  0.87668358     0.28700
C212        C  0.77131194  0.87354280  0.91477426     0.28700
C213        C  0.63626176  0.82019068  0.89011469     0.28700
C214        C  0.63654483  0.85688897  0.92880452     0.28700
C215        C  0.72827102  0.80511188  0.84321877     0.37300
C216        C  0.67457274  0.80253539  0.84644356     0.37300
C217        C  0.72777304  0.90629966  0.94357391     0.37300
C218        C  0.67463850  0.90082581  0.94726238     0.37300
C219        C  0.80353113  0.83952791  0.88670039    -0.20200
C220        C  0.80348350  0.86368593  0.91051592    -0.20200
C221        C  0.60914790  0.81379596  0.90970847    -0.20200
C222        C  0.60932866  0.83706800  0.93421802    -0.20200
C223        C  0.71735452  0.78789012  0.81577483    -0.21200
C224        C  0.68339173  0.78663260  0.81761684    -0.21200
C225        C  0.71626635  0.93356970  0.96071358    -0.21200
C226        C  0.68259167  0.93024600  0.96278558    -0.21200
C227        C  0.76176501  0.81196348  0.85131799    -0.16600
C228        C  0.76127124  0.89926673  0.93678584    -0.16600
C229        C  0.64284472  0.88658635  0.94536170    -0.16600
C230        C  0.64222774  0.80527231  0.85958939    -0.16600
H231        H  0.82507366  0.82753439  0.87726569     0.16300
H232        H  0.82495479  0.87321435  0.92286593     0.16300
H233        H  0.59058821  0.79501110  0.90601182     0.16300
H234        H  0.59091723  0.83988809  0.95317739     0.16300
H235        H  0.73227918  0.77750246  0.79635692     0.14600
H236        H  0.66717697  0.77469367  0.80023957     0.14600
H237        H  0.73061447  0.95374051  0.97067365     0.14600
H238        H  0.66598061  0.94714543  0.97489275     0.14600
H239        H  0.72710185  0.85904112  0.89027899     0.27900
H240        H  0.67245682  0.85828541  0.89068635     0.27900
N241        N  0.88591912  0.00028973  0.89869897    -0.34900
N242        N  0.85225081  0.05172027  0.93702389    -0.55500
N243        N  0.89133588  0.10084964  0.90124530    -0.34900
N244        N  0.92672956  0.04991291  0.86501061    -0.55500
C245        C  0.86669824  0.98107519  0.91813907     0.28700
C246        C  0.90591612  0.98005946  0.88105314     0.28700
C247        C  0.87902076  0.11896772  0.92628864     0.28700
C248        C  0.91690302  0.11808701  0.88881402     0.28700
C249        C  0.83425814  0.02546702  0.94725372     0.37300
C250        C  0.83734060  0.07958798  0.94798593     0.37300
C251        C  0.93631530  0.02280761  0.84788542     0.37300
C252        C  0.93807504  0.07689217  0.84886520     0.37300
C253        C  0.87447561  0.94825542  0.91230703    -0.20200
C254        C  0.89904202  0.94761779  0.88933948    -0.20200
C255        C  0.89733651  0.14767251  0.93011000    -0.20200
C256        C  0.92117452  0.14712904  0.90644439    -0.20200
C257        C  0.80787235  0.03682791  0.96557642    -0.21200
C258        C  0.80966209  0.07102744  0.96578676    -0.21200
C259        C  0.95455260  0.03271273  0.82088477    -0.21200
C260        C  0.95541389  0.06687940  0.82135571    -0.21200
C261        C  0.84166067  0.99156755  0.94047732    -0.16600
C262        C  0.92925300  0.98937014  0.85654022    -0.16600
C263        C  0.93429898  0.11007969  0.85999336    -0.16600
C264        C  0.84973718  0.11223270  0.94343229    -0.16600
H265        H  0.86319892  0.92667642  0.92294168     0.16300
H266        H  0.91012113  0.92547240  0.87951492     0.16300
H267        H  0.89350438  0.16737036  0.94770581     0.16300
H268        H  0.93923396  0.16627132  0.90226287     0.16300
H269        H  0.78913746  0.02204109  0.97730268     0.14600
H270        H  0.79286929  0.08762116  0.97805932     0.14600
H271        H  0.96584969  0.01697816  0.80259032     0.14600
H272        H  0.96780958  0.08250475  0.80379822     0.14600
H273        H  0.88495660  0.02562745  0.89700911     0.27900
H274        H  0.88089872  0.07970695  0.89117825     0.27900
O275        O  0.30166893  0.57045020  0.24899089    -0.76800
C276        C  0.19903199  0.57415540  0.29271478     0.84300
O277        O  0.31429078  0.50176355  0.30464964    -0.77900
O278        O  0.19102774  0.47620072  0.29559700    -0.79400
O279        O  0.23533605  0.47940839  0.18742922    -0.79200
O280        O  0.29205399  0.54891162  0.19935321    -0.77800
Zn281      Zn  0.26460261  0.55145202  0.27631572     1.55700
O282        O  0.18961397  0.48154800  0.21808493    -0.79200
Cd283      Cd  0.26870236  0.50663510  0.21484229     1.59700
Cd284      Cd  0.27285997  0.47478150  0.28579461     1.59600
O285        O  0.30666420  0.47506043  0.21706030    -0.79200
O286        O  0.25158787  0.51040320  0.25940848    -1.89700
Cd287      Cd  0.20434055  0.50719351  0.25952235     1.59900
O288        O  0.28388139  0.43830348  0.24947391    -0.79200
O289        O  0.18430183  0.54963650  0.27954283    -0.77800
C290        C  0.30866944  0.53046052  0.31663253     0.84700
C291        C  0.30848642  0.56759016  0.21856652     0.84400
O292        O  0.22867333  0.58140186  0.28679693    -0.76800
C293        C  0.20638262  0.46962123  0.19434773     0.85200
O294        O  0.27962295  0.53975103  0.31987477    -0.76900
C295        C  0.29832460  0.44564546  0.22258650     0.85300
C296        C  0.20508059  0.45997410  0.31782753     0.85700
O297        O  0.23642368  0.45760909  0.31972223    -0.79300
O298        O  0.23903308  0.16558821  0.55039234    -0.76800
C299        C  0.18954376  0.19314587  0.45427097     0.84300
O300        O  0.31110705  0.21742984  0.47170331    -0.77900
O301        O  0.23021737  0.25602233  0.45070578    -0.79400
O302        O  0.20865230  0.28932881  0.56616777    -0.79200
O303        O  0.23772120  0.20461330  0.58702646    -0.77800
Zn304      Zn  0.24360344  0.18679501  0.50655273     1.55700
O305        O  0.18824747  0.29075081  0.51551169    -0.79200
Cd306      Cd  0.23972479  0.24844209  0.56272586     1.59700
Cd307      Cd  0.28429986  0.25664062  0.49677619     1.59600
O308        O  0.28144420  0.26571427  0.58029687    -0.79200
O309        O  0.24514470  0.23330118  0.51647386    -1.89700
Cd310      Cd  0.20582383  0.24738387  0.49271372     1.59900
O311        O  0.31416558  0.27368907  0.53711207    -0.79200
O312        O  0.17444336  0.21455159  0.47143075    -0.77800
C313        C  0.30858031  0.18589238  0.47563672     0.84700
C314        C  0.25474931  0.18468276  0.56975138     0.84400
O315        O  0.21485899  0.17888352  0.46558395    -0.76800
C316        C  0.19302255  0.30409023  0.54350640     0.85200
O317        O  0.28526441  0.17279604  0.49109806    -0.76900
C318        C  0.30856911  0.27404100  0.56818167     0.85300
C319        C  0.23323782  0.28622854  0.45491166     0.85700
O320        O  0.25847752  0.29609212  0.47083504    -0.79300
O321        O  0.53687275  0.76070867  0.82366754    -0.76800
C322        C  0.43828765  0.70434967  0.82166977     0.84300
O323        O  0.54582662  0.72288881  0.74557947    -0.77900
O324        O  0.42178322  0.73727293  0.72493101    -0.79400
O325        O  0.45505336  0.83539832  0.76457373    -0.79200
O326        O  0.53670167  0.81267137  0.80601749    -0.77800
Zn327      Zn  0.49710603  0.73854697  0.80267195     1.55700
O328        O  0.41403997  0.80141795  0.76084784    -0.79200
Cd329      Cd  0.49841762  0.81035494  0.77126477     1.59700
Cd330      Cd  0.50408073  0.74727449  0.72379461     1.59600
O331        O  0.52066210  0.82927352  0.73206100    -0.79200
O332        O  0.48300599  0.76395884  0.76572066    -1.89700
Cd333      Cd  0.43501576  0.75610502  0.76679507     1.59900
O334        O  0.51855623  0.78888177  0.69496874    -0.79200
O335        O  0.42233660  0.71692298  0.79798757    -0.77800
C336        C  0.54025547  0.70643715  0.77175087     0.84700
C337        C  0.55056291  0.78885116  0.82104449     0.84400
O338        O  0.46422448  0.71786191  0.83258140    -0.76800
C339        C  0.43497852  0.81952609  0.74621515     0.85200
O340        O  0.51118137  0.69949113  0.77871010    -0.76900
C341        C  0.52392154  0.81901848  0.70305253     0.85300
C342        C  0.43466736  0.72451149  0.70001956     0.85700
O343        O  0.46594177  0.72248466  0.69595415    -0.79300
O344        O  0.17590412  0.74236212  0.96654308    -0.76800
C345        C  0.18503529  0.80177175  0.06401697     0.84300
O346        O  0.25162326  0.78615360  0.95314011    -0.77900
O347        O  0.27364469  0.77058934  0.07678232    -0.79400
O348        O  0.26410189  0.67318696  0.02913664    -0.79200
O349        O  0.19074639  0.68969759  0.97188549    -0.77800
Zn350      Zn  0.19682793  0.76825167  0.00439401     1.55700
O351        O  0.26383686  0.70381108  0.07511272    -0.79200
Cd352      Cd  0.23305506  0.69958146  0.99828188     1.59700
Cd353      Cd  0.27520265  0.76413204  0.99523298     1.59600
O354        O  0.26255787  0.69933502  0.95851815    -0.79200
O355        O  0.23436370  0.74449217  0.01623623    -1.89700
Cd356      Cd  0.23527109  0.74464533  0.06335715     1.59900
O357        O  0.30436042  0.72217969  0.98313492    -0.79200
O358        O  0.20785132  0.78635141  0.07888628    -0.77800
C359        C  0.22475713  0.80080182  0.96005999     0.84700
C360        C  0.17668498  0.71273551  0.95590266     0.84400
O361        O  0.17013235  0.78862042  0.03984690    -0.76800
C362        C  0.27851143  0.68473816  0.05463578     0.85200
O363        O  0.21930108  0.80779210  0.98942395    -0.76900
C364        C  0.29196518  0.69786193  0.96744029     0.85300
C365        C  0.29594815  0.78812710  0.06472116     0.85700
O366        O  0.29976255  0.79176563  0.03354134    -0.79300
O367        O  0.05121346  0.51700291  0.08593436    -0.76800
C368        C  0.95884210  0.56295270  0.04331424     0.84300
O369        O  0.98027091  0.43398951  0.04942115    -0.77900
O370        O  0.98416454  0.51735783  0.95788375    -0.79400
O371        O  0.07341362  0.51685409  0.96033319    -0.79200
O372        O  0.08901764  0.50842812  0.04921442    -0.77800
Zn373      Zn  0.00719359  0.51025485  0.06570191     1.55700
O374        O  0.04370393  0.56227252  0.96483470    -0.79200
Cd375      Cd  0.06467974  0.49568481  0.00738523     1.59700
Cd376      Cd  0.99091244  0.46292993  0.00602675     1.59600
O377        O  0.06846018  0.44715009  0.00343501    -0.79200
O378        O  0.01848390  0.50151696  0.02043012    -1.89700
Cd379      Cd  0.00862482  0.54068269  0.99355709     1.59900
O380        O  0.02449162  0.43811748  0.97273264    -0.79200
O381        O  0.97528422  0.57011369  0.01773078    -0.77800
C382        C  0.98184217  0.44260044  0.07983509     0.84700
C383        C  0.07024004  0.49675247  0.07125815     0.84400
O384        O  0.96910063  0.54267807  0.06479515    -0.76800
C385        C  0.06256564  0.54369699  0.94820885     0.85200
O386        O  0.99070240  0.47122889  0.08836713    -0.76900
C387        C  0.05517388  0.43405338  0.97890869     0.85300
C388        C  0.95568370  0.51503687  0.96905320     0.85700
O389        O  0.94915788  0.49067872  0.98791141    -0.79300
O390        O  0.31080427  0.02274087  0.79028752    -0.76800
C391        C  0.31776576  0.93904013  0.71231028     0.84300
O392        O  0.26114815  0.04786468  0.69501578    -0.77900
O393        O  0.22389978  0.96312333  0.68809891    -0.79400
O394        O  0.21360377  0.94278685  0.80472214    -0.79200
O395        O  0.27302170  0.00878561  0.82757042    -0.77800
Zn396      Zn  0.29926077  0.99773554  0.75033942     1.55700
O397        O  0.21214126  0.91953534  0.75465745    -0.79200
Cd398      Cd  0.23887307  0.98635028  0.79665797     1.59700
Cd399      Cd  0.22858276  0.02514079  0.72934607     1.59600
O400        O  0.20244880  0.01903365  0.80461196    -0.79200
O401        O  0.25417844  0.98936267  0.75125458    -1.89700
Cd402      Cd  0.24639893  0.94747415  0.72871195     1.59900
O403        O  0.21406689  0.05762299  0.76783712    -0.79200
O404        O  0.28854032  0.92848650  0.70976615    -0.77800
C405        C  0.29253959  0.04614343  0.69519896     0.84700
C406        C  0.29707584  0.02662058  0.81801477     0.84400
O407        O  0.32657382  0.96020540  0.73381206    -0.76800
C408        C  0.20157608  0.92227409  0.78407700     0.85200
O409        O  0.30784648  0.02890869  0.71564979    -0.76900
C410        C  0.20305815  0.04888732  0.79595272     0.85300
C411        C  0.19480493  0.97028151  0.69515567     0.85700
O412        O  0.18869631  0.99729617  0.71020077    -0.79300
O413        O  0.69002219  0.73682388  0.46025321    -0.76800
C414        C  0.68130932  0.79960475  0.55516554     0.84300
O415        O  0.76091627  0.78214560  0.45658071    -0.77900
O416        O  0.77911100  0.76801070  0.58134413    -0.79400
O417        O  0.73762529  0.66873168  0.55123794    -0.79200
O418        O  0.70860641  0.68537721  0.46468042    -0.77800
Zn419      Zn  0.70447172  0.76132496  0.50235284     1.55700
O420        O  0.74030772  0.70514933  0.59042048    -0.79200
Cd421      Cd  0.73841085  0.69118090  0.50633687     1.59700
Cd422      Cd  0.78237551  0.75752942  0.49857891     1.59600
O423        O  0.78134064  0.67413449  0.49113295    -0.79200
O424        O  0.74129246  0.73839271  0.51939965    -1.89700
Cd425      Cd  0.73722855  0.74961377  0.56655416     1.59900
O426        O  0.81359052  0.71814129  0.48497256    -0.79200
O427        O  0.70523824  0.79004019  0.57279029    -0.77800
C428        C  0.73430783  0.79711568  0.46366900     0.84700
C429        C  0.69468644  0.70811416  0.44819605     0.84400
O430        O  0.67067934  0.78171999  0.53167223    -0.76800
C431        C  0.75527104  0.68487453  0.57168003     0.85200
O432        O  0.72822759  0.80198684  0.49323333    -0.76900
C433        C  0.80876602  0.68695939  0.48496616     0.85300
C434        C  0.80469629  0.77968187  0.56869499     0.85700
O435        O  0.80914080  0.78167329  0.53745709    -0.79300
O436        O  0.03827925  0.76610114  0.31766079    -0.76800
C437        C  0.94406914  0.70299586  0.31922086     0.84300
O438        O  0.04938628  0.72361759  0.25011686    -0.77900
O439        O  0.92823211  0.73100425  0.21713071    -0.79400
O440        O  0.94718345  0.83089538  0.26691388    -0.79200
O441        O  0.03559716  0.81726691  0.29852545    -0.77800
Zn442      Zn  0.99765731  0.74194969  0.29953874     1.55700
O443        O  0.91039205  0.79246725  0.26080965    -0.79200
Cd444      Cd  0.99395269  0.81218877  0.26740330     1.59700
Cd445      Cd  0.01060604  0.74811007  0.22268258     1.59600
O446        O  0.01065597  0.83266902  0.22661234    -0.79200
O447        O  0.98372772  0.76465093  0.26120690    -1.89700
Cd448      Cd  0.93715570  0.74989339  0.26074410     1.59900
O449        O  0.02771424  0.79066880  0.19553128    -0.79200
O450        O  0.92944105  0.71000240  0.29258789    -0.77800
C451        C  0.03979803  0.70697752  0.27503511     0.84700
C452        C  0.05115251  0.79441278  0.31344825     0.84400
O453        O  0.96545778  0.72251236  0.33125985    -0.76800
C454        C  0.92885167  0.81400057  0.24763100     0.85200
O455        O  0.00992201  0.70098763  0.27747590    -0.76900
C456        C  0.02396763  0.82174597  0.20093168     0.85300
C457        C  0.94447184  0.72009925  0.19315866     0.85700
O458        O  0.97607132  0.72134741  0.19172884    -0.79300
O459        O  0.56306729  0.04619049  0.95966714    -0.76800
C460        C  0.57565063  0.99351288  0.05951638     0.84300
O461        O  0.53437653  0.93515988  0.97847961    -0.77900
O462        O  0.49938504  0.96009849  0.07600338    -0.79400
O463        O  0.47215499  0.07542575  0.03942311    -0.79200
O464        O  0.51315034  0.06855091  0.96083435    -0.77800
Zn465      Zn  0.56160896  0.01152527  0.99696040     1.55700
O466        O  0.46866691  0.03330097  0.07377934    -0.79200
Cd467      Cd  0.49300899  0.04690707  0.00361629     1.59700
Cd468      Cd  0.49534769  0.96713089  0.99428972     1.59600
O469        O  0.45181957  0.02146094  0.99524908    -0.79200
O470        O  0.51787622  0.00678859  0.01450051    -1.89700
Cd471      Cd  0.51122866  0.00545198  0.06247180     1.59900
O472        O  0.46934847  0.99177794  0.95496248    -0.79200
O473        O  0.55765916  0.00846703  0.08039321    -0.77800
C474        C  0.56470081  0.94210777  0.97328052     0.84700
C475        C  0.54096273  0.06440401  0.94689751     0.84400
O476        O  0.58939289  0.01132408  0.03760699    -0.76800
C477        C  0.45642142  0.05922999  0.06106757     0.85200
O478        O  0.57614258  0.97077123  0.97718835    -0.76900
C479        C  0.45430581  0.01749496  0.96511529     0.85300
C480        C  0.47538427  0.94412468  0.06492043     0.85700
O481        O  0.46718990  0.94533127  0.03437186    -0.79300
C482        C  0.29106368  0.79285041  0.33210145     0.81900
N483        N  0.30351122  0.80699023  0.30438444    -0.76400
C484        C  0.33205789  0.79606083  0.29065958     0.84400
N485        N  0.34890591  0.77140785  0.30575219    -0.76300
C486        C  0.33711472  0.75701351  0.33362165     0.84500
N487        N  0.30831246  0.76810216  0.34678675    -0.78000
N488        N  0.39876191  0.71752686  0.39296363    -0.34900
N489        N  0.43679033  0.66411262  0.42450781    -0.55500
N490        N  0.40422159  0.61862771  0.38012749    -0.34900
N491        N  0.36769483  0.67017890  0.34764654    -0.55500
C492        C  0.41718600  0.73575361  0.41436332     0.28700
C493        C  0.38016317  0.73848949  0.37466035     0.28700
C494        C  0.42945170  0.60083876  0.39152466     0.28700
C495        C  0.39477631  0.60400207  0.35194157     0.28700
C496        C  0.44545997  0.68937119  0.44479042     0.37300
C497        C  0.44523397  0.63506210  0.43890223     0.37300
C498        C  0.34943823  0.69679775  0.34007036     0.37300
C499        C  0.35283306  0.64331865  0.33429654     0.37300
C500        C  0.40959353  0.76873664  0.40973472    -0.20200
C501        C  0.38689095  0.77048153  0.38476490    -0.20200
C502        C  0.43680068  0.57537528  0.36985902    -0.20200
C503        C  0.41463012  0.57727180  0.34484748    -0.20200
C504        C  0.46048160  0.67613028  0.47225519    -0.21200
C505        C  0.45984947  0.64189071  0.46877120    -0.21200
C506        C  0.32309036  0.68677439  0.32090101    -0.21200
C507        C  0.32502191  0.65284867  0.31763423    -0.21200
C508        C  0.43980769  0.72393529  0.43882378    -0.16600
C509        C  0.35629478  0.72990052  0.34999875    -0.16600
C510        C  0.36558767  0.61087187  0.33576761    -0.16600
C511        C  0.44141963  0.60328767  0.42352363    -0.16600
H512        H  0.41821784  0.78947033  0.42398093     0.16300
H513        H  0.37603545  0.79287675  0.37565227     0.16300
H514        H  0.45506107  0.55635792  0.37281389     0.16300
H515        H  0.41226994  0.56006793  0.32458268     0.16300
H516        H  0.47030345  0.68968637  0.49296700     0.14600
H517        H  0.46986144  0.62423138  0.48573890     0.14600
H518        H  0.30419915  0.70222235  0.31066420     0.14600
H519        H  0.30836379  0.63714790  0.30401287     0.14600
H520        H  0.39855940  0.69208299  0.39133753     0.27900
H521        H  0.39145071  0.63677884  0.39299685     0.27900
C522        C  0.49130975  0.91344079  0.33618868     0.81900
N523        N  0.47935630  0.94226032  0.34846215    -0.76400
C524        C  0.45499074  0.95862823  0.33275793     0.84400
N525        N  0.44211631  0.94553091  0.30473454    -0.76300
C526        C  0.45408142  0.91693008  0.29173208     0.84500
N527        N  0.47838670  0.90070131  0.30792634    -0.78000
N528        N  0.53218716  0.85443067  0.39645239    -0.34900
N529        N  0.57795024  0.88854134  0.35177500    -0.55500
N530        N  0.63057646  0.85064516  0.37883823    -0.34900
N531        N  0.58576357  0.81357161  0.42146787    -0.55500
C532        C  0.51097278  0.87016031  0.37604906     0.28700
C533        C  0.51492835  0.83158774  0.41387477     0.28700
C534        C  0.64518085  0.86424638  0.35245269     0.28700
C535        C  0.64924454  0.82499181  0.38770683     0.28700
C536        C  0.55084490  0.90659657  0.34637594     0.37300
C537        C  0.60359471  0.90597575  0.33972921     0.37300
C538        C  0.56173221  0.80337067  0.44234843     0.37300
C539        C  0.61511321  0.80322653  0.43336059     0.37300
C540        C  0.47980154  0.85770775  0.38120072    -0.20200
C541        C  0.48233687  0.83366082  0.40477785    -0.20200
C542        C  0.67302196  0.84669908  0.34398700    -0.20200
C543        C  0.67556181  0.82173004  0.36627931    -0.20200
C544        C  0.55927282  0.93553256  0.33032469    -0.21200
C545        C  0.59278478  0.93526372  0.32639388    -0.21200
C546        C  0.57600486  0.78545608  0.46741644    -0.21200
C547        C  0.60966781  0.78568522  0.46194142    -0.21200
C548        C  0.51851457  0.89618155  0.35361458    -0.16600
C549        C  0.52723153  0.80928272  0.43818637    -0.16600
C550        C  0.64616670  0.80825594  0.41745559    -0.16600
C551        C  0.63607038  0.89422566  0.33850141    -0.16600
H552        H  0.45744177  0.86508040  0.36916530     0.16300
H553        H  0.46234577  0.81902361  0.41381374     0.16300
H554        H  0.69027774  0.85206579  0.32451663     0.16300
H555        H  0.69530887  0.80406134  0.36754843     0.16300
H556        H  0.54298689  0.95477204  0.32215433     0.14600
H557        H  0.60737583  0.95399843  0.31437661     0.14600
H558        H  0.56350280  0.77358790  0.48761772     0.14600
H559        H  0.62791547  0.77367554  0.47682518     0.14600
H560        H  0.55686430  0.85972145  0.39904868     0.27900
H561        H  0.61132570  0.86056041  0.39232451     0.27900
N562        N  0.39216751  0.85765343  0.25468318    -0.34900
N563        N  0.34920688  0.82842431  0.20471204    -0.55500
N564        N  0.38503121  0.86641768  0.15543750    -0.34900
N565        N  0.42541024  0.89814546  0.20481960    -0.55500
C566        C  0.37045754  0.84111515  0.27397368     0.28700
C567        C  0.40954565  0.87856046  0.27423825     0.28700
C568        C  0.35837535  0.85643779  0.13870112     0.28700
C569        C  0.39793927  0.89181113  0.13853768     0.28700
C570        C  0.34110562  0.80874413  0.23029539     0.37300
C571        C  0.33807184  0.81364801  0.17690079     0.37300
C572        C  0.44357206  0.90721126  0.23116843     0.37300
C573        C  0.44071341  0.90972378  0.17755738     0.37300
C574        C  0.37437064  0.85151566  0.30620184    -0.20200
C575        C  0.39882464  0.87490586  0.30637070    -0.20200
C576        C  0.35389700  0.87612078  0.11134443    -0.20200
C577        C  0.37903365  0.89843749  0.11118430    -0.20200
C578        C  0.32405156  0.78144443  0.21866981    -0.21200
C579        C  0.32231358  0.78444537  0.18486051    -0.21200
C580        C  0.47033315  0.92552675  0.22055891    -0.21200
C581        C  0.46868270  0.92683648  0.18663040    -0.21200
C582        C  0.34826588  0.81572007  0.26389656    -0.16600
C583        C  0.43562910  0.90006720  0.26456153    -0.16600
C584        C  0.42816133  0.90667490  0.14510881    -0.16600
C585        C  0.34080804  0.82747617  0.14495535    -0.16600
H586        H  0.36119559  0.84296093  0.32759385     0.16300
H587        H  0.40784326  0.88754318  0.32795203     0.16300
H588        H  0.33509058  0.87388742  0.09281054     0.16300
H589        H  0.38340891  0.91691029  0.09260708     0.16300
H590        H  0.31416128  0.76134515  0.23301570     0.14600
H591        H  0.31061632  0.76728953  0.16812966     0.14600
H592        H  0.48906782  0.93678975  0.23568226     0.14600
H593        H  0.48558598  0.93962266  0.17059705     0.14600
H594        H  0.39593280  0.85378394  0.22983358     0.27900
H595        H  0.39573387  0.85435542  0.17509814     0.27900
C596        C  0.29287049  0.91688029  0.45208384     0.81900
N597        N  0.30510851  0.94581340  0.43978054    -0.76400
C598        C  0.33298081  0.95977157  0.45243248     0.84400
N599        N  0.34933453  0.94371517  0.47666089    -0.76300
C600        C  0.33827240  0.91449890  0.48878915     0.84500
N601        N  0.30999626  0.90118921  0.47635128    -0.78000
C602        C  0.46073521  0.79117558  0.50037334     0.81900
N603        N  0.44588195  0.76444148  0.48573993    -0.76400
C604        C  0.45896037  0.74987910  0.45819799     0.84400
N605        N  0.48650980  0.76352302  0.44451236    -0.76300
C606        C  0.50177580  0.79037662  0.45822444     0.84500
N607        N  0.48820061  0.80430776  0.48580479    -0.78000
N608        N  0.39861899  0.85489615  0.53024335    -0.34900
N609        N  0.37202930  0.90460513  0.57359228    -0.55500
N610        N  0.40873227  0.87342557  0.62689454    -0.34900
N611        N  0.43796694  0.82599271  0.58541350    -0.55500
C612        C  0.38344403  0.87555875  0.50864685     0.28700
C613        C  0.42182846  0.83743051  0.51355842     0.28700
C614        C  0.40190138  0.90373029  0.63828659     0.28700
C615        C  0.43290257  0.86167434  0.64577238     0.28700
C616        C  0.35097401  0.90854072  0.54844075     0.37300
C617        C  0.35793278  0.91849081  0.60030482     0.37300
C618        C  0.44562243  0.80466430  0.56074327     0.37300
C619        C  0.44464318  0.81154128  0.61493237     0.37300
C620        C  0.39695961  0.87082771  0.47787414    -0.20200
C621        C  0.42104639  0.84724935  0.48094347    -0.20200
C622        C  0.42261420  0.91192719  0.66399398    -0.20200
C623        C  0.44239302  0.88512620  0.66876048    -0.20200
C624        C  0.32376268  0.92604045  0.55899415    -0.21200
C625        C  0.32801017  0.93199707  0.59208555    -0.21200
C626        C  0.45827553  0.77627132  0.57482773    -0.21200
C627        C  0.45703612  0.78034671  0.60894789    -0.21200
C628        C  0.35717393  0.89792120  0.51591568    -0.16600
C629        C  0.44229714  0.81143626  0.52605523    -0.16600
C630        C  0.44186745  0.82855720  0.64606726    -0.16600
C631        C  0.37259078  0.91954122  0.63156418    -0.16600
H632        H  0.39023981  0.88303575  0.45545268     0.16300
H633        H  0.43601946  0.83813502  0.46107414     0.16300
H634        H  0.42172661  0.93387499  0.67920662     0.16300
H635        H  0.46026184  0.88235259  0.68809286     0.16300
H636        H  0.30294969  0.93343229  0.54445987     0.14600
H637        H  0.31129811  0.94507957  0.60812567     0.14600
H638        H  0.46721505  0.75472502  0.56189385     0.14600
H639        H  0.46543566  0.76294363  0.62705902     0.14600
H640        H  0.39244230  0.85167993  0.55474261     0.27900
H641        H  0.39443213  0.85977857  0.61055976     0.27900
N642        N  0.39412613  0.99597299  0.39223474    -0.34900
N643        N  0.36218148  0.04699380  0.43228214    -0.55500
N644        N  0.40147223  0.09670373  0.39757890    -0.34900
N645        N  0.43546968  0.04604190  0.35974255    -0.55500
C646        C  0.37580140  0.97669163  0.41229994     0.28700
C647        C  0.41477919  0.97623076  0.37505782     0.28700
C648        C  0.38889470  0.11491560  0.42228591     0.28700
C649        C  0.42630423  0.11431695  0.38450890     0.28700
C650        C  0.34365157  0.02081288  0.44176553     0.37300
C651        C  0.34775670  0.07479834  0.44404334     0.37300
C652        C  0.44476762  0.01927754  0.34205094     0.37300
C653        C  0.44730632  0.07312128  0.34424967     0.37300
C654        C  0.38462901  0.94404007  0.40718106    -0.20200
C655        C  0.40917040  0.94375657  0.38417439    -0.20200
C656        C  0.40617210  0.14436012  0.42515148    -0.20200
C657        C  0.42975502  0.14397799  0.40131710    -0.20200
C658        C  0.31749343  0.03209114  0.46040610    -0.21200
C659        C  0.31994584  0.06619163  0.46164154    -0.21200
C660        C  0.46329102  0.02941269  0.31533510    -0.06800
C661        C  0.46468280  0.06349909  0.31659266    -0.21200
C662        C  0.35061850  0.98697018  0.43449788    -0.16600
C663        C  0.43762434  0.98590625  0.35030770    -0.16600
C664        C  0.44392502  0.10605989  0.35599562    -0.16600
C665        C  0.36036643  0.10748709  0.44018931    -0.16600
H666        H  0.37401619  0.92236187  0.41825665     0.16300
H667        H  0.42108570  0.92183066  0.37491422     0.16300
H668        H  0.40178007  0.16442411  0.44221118     0.16300
H669        H  0.44706094  0.16365440  0.39647386     0.16300
H670        H  0.29851214  0.01731463  0.47174339     0.14600
H671        H  0.30340416  0.08270332  0.47436411     0.14600
H672        H  0.47452706  0.01388825  0.29682071     0.14600
H673        H  0.47745359  0.07932088  0.29947287     0.14600
H674        H  0.39191304  0.02185466  0.38953609     0.27900
H675        H  0.39150058  0.07454481  0.38804273     0.27900
N676        N  0.25458614  0.85426185  0.39273280    -0.34900
N677        N  0.20350402  0.81535135  0.35759196    -0.55500
N678        N  0.15506722  0.85465510  0.39193924    -0.34900
N679        N  0.20501536  0.89208947  0.42856613    -0.55500
C680        C  0.27367582  0.83253636  0.37580152     0.28700
C681        C  0.27437208  0.87222930  0.41311572     0.28700
C682        C  0.13717419  0.82892408  0.38063203     0.28700
C683        C  0.13796582  0.86781856  0.41712727     0.28700
C684        C  0.23024057  0.80417245  0.34115987     0.37300
C685        C  0.17632681  0.80537480  0.34089479     0.37300
C686        C  0.23178554  0.90910158  0.43904084     0.37300
C687        C  0.17787313  0.90931043  0.43747627     0.37300
C688        C  0.30593016  0.83704704  0.38555934    -0.20200
C689        C  0.30638379  0.86172749  0.40875399    -0.20200
C690        C  0.10898650  0.82519357  0.39928289    -0.20200
C691        C  0.10948441  0.84977735  0.42237754    -0.20200
C692        C  0.21981740  0.78604202  0.31407242    -0.21200
C693        C  0.18579823  0.78704392  0.31377076    -0.21200
C694        C  0.22139810  0.93726916  0.45551254    -0.21200
C695        C  0.18737965  0.93755551  0.45423149    -0.21200
C696        C  0.26370865  0.80985360  0.35049883    -0.16600
C697        C  0.26517921  0.89893897  0.43448746    -0.16600
C698        C  0.14501325  0.89812477  0.43238469    -0.16600
C699        C  0.14348058  0.81157213  0.35148184    -0.16600
H700        H  0.32734048  0.82439092  0.37648637     0.16300
H701        H  0.32822444  0.87124517  0.42045703     0.16300
H702        H  0.08962012  0.80719285  0.39592769     0.16300
H703        H  0.09051151  0.85452090  0.44036705     0.16300
H704        H  0.23512749  0.77358579  0.29622593     0.14600
H705        H  0.16992000  0.77520767  0.29602111     0.14600
H706        H  0.23670383  0.95573284  0.46716515     0.14600
H707        H  0.17150211  0.95595010  0.46508091     0.14600
H708        H  0.22972956  0.85727119  0.38959421     0.27900
H709        H  0.17568523  0.86489190  0.38085605     0.27900
O710        O  0.66500874  0.03078352  0.26020682    -0.76800
C711        C  0.71347520  0.96703371  0.17518532     0.84300
O712        O  0.73404753  0.95660747  0.29949717    -0.77900
O713        O  0.80966908  0.99872877  0.20944512    -0.79400
O714        O  0.76788621  0.09146204  0.22685215    -0.79200
O715        O  0.69599912  0.07273278  0.27809354    -0.77800
Zn716      Zn  0.69798587  0.00045078  0.23834966     1.55700
O717        O  0.77268877  0.06017290  0.18195270    -0.79200
Cd718      Cd  0.74038358  0.06177059  0.25740646     1.59700
Cd719      Cd  0.76785461  0.98660690  0.27376931     1.59600
O720        O  0.76913134  0.06616459  0.29627159    -0.79200
O721        O  0.74170306  0.01570643  0.24413486    -1.89700
Cd722      Cd  0.76388242  0.01503731  0.20168773     1.59900
O723        O  0.79462086  0.01847245  0.30590243    -0.79200
O724        O  0.74229033  0.97891656  0.17379924    -0.77800
C725        C  0.70443392  0.95001243  0.29152635     0.84700
C726        C  0.66999605  0.05538810  0.27924281     0.84400
O727        O  0.69139273  0.97854900  0.19426356    -0.76800
C728        C  0.78129941  0.08476276  0.19941672     0.85200
O729        O  0.69053515  0.96338389  0.26746988    -0.76900
C730        C  0.78980546  0.04927443  0.31161089     0.85300
C731        C  0.81131262  0.96849206  0.21603095     0.85700
O732        O  0.79631114  0.95693811  0.24107268    -0.79300
O733        O  0.82763101  0.21905465  0.99248752    -0.76800
C734        C  0.81534360  0.30674914  0.06785284     0.84300
O735        O  0.74748990  0.19345997  0.02182641    -0.77900
O736        O  0.72469909  0.29507279  0.05392239    -0.79400
O737        O  0.72828940  0.30173852  0.95012301    -0.79200
O738        O  0.79710937  0.21936621  0.94761303    -0.77800
Zn739      Zn  0.80162671  0.25106937  0.02150548     1.55700
O740        O  0.73149446  0.33859462  0.99066138    -0.79200
Cd741      Cd  0.77427349  0.27090905  0.94538691     1.59700
Cd742      Cd  0.72454554  0.23710918  0.00166902     1.59600
O743        O  0.73770851  0.24268782  0.91776688    -0.79200
O744        O  0.76545454  0.26671481  0.99639431    -1.89700
Cd745      Cd  0.75846277  0.30879631  0.02102968     1.59900
O746        O  0.70442947  0.22221942  0.95580764    -0.79200
O747        O  0.79296294  0.32438853  0.05520067    -0.77800
C748        C  0.77212679  0.19925821  0.04021120     0.84700
C749        C  0.81641296  0.20459695  0.96701414     0.84400
O750        O  0.82503903  0.28014050  0.05429207    -0.76800
C751        C  0.71556889  0.32433633  0.96769624     0.85200
O752        O  0.77446658  0.22732720  0.05277227    -0.76900
C753        C  0.71258144  0.22641375  0.92580766     0.85300
C754        C  0.69706651  0.29584657  0.04058460     0.85700
O755        O  0.68884605  0.27180581  0.02171765    -0.79300
C756        C  0.32244263  0.25609272  0.83737438     0.81900
N757        N  0.29453694  0.27045609  0.84889426    -0.76400
C758        C  0.28042908  0.29586445  0.83245321     0.84400
N759        N  0.29509429  0.30752206  0.80465927    -0.76300
C760        C  0.32290808  0.29335993  0.79249436     0.84500
N761        N  0.33673601  0.26797203  0.80941295    -0.78000
C762        C  0.47993224  0.29944537  0.96175544     0.81900
N763        N  0.46827415  0.27120582  0.94724620    -0.76400
C764        C  0.44312729  0.25347554  0.96099085     0.84400
N765        N  0.42878375  0.26539842  0.98912083    -0.76300
C766        C  0.44016492  0.29351891  0.00426714     0.84500
N767        N  0.46533571  0.31052523  0.98992822    -0.78000
C768        C  0.43128394  0.42678476  0.79467313     0.81900
N769        N  0.41930737  0.45515062  0.80829513    -0.76400
C770        C  0.43280983  0.46782305  0.83630445     0.84400
N771        N  0.45748036  0.45109023  0.85120653    -0.76300
C772        C  0.46879075  0.42221141  0.83849304     0.84500
N773        N  0.45570643  0.41029478  0.81022009    -0.78000
C774        C  0.27839486  0.41747490  0.95454967     0.81900
N775        N  0.29110367  0.44692521  0.94449085    -0.76400
C776        C  0.31684593  0.46119189  0.96055775     0.84400
N777        N  0.33060530  0.44488824  0.98639128    -0.76300
C778        C  0.31826862  0.41523584  0.99663958     0.84500
N779        N  0.29234747  0.40166332  0.98036319    -0.78000
N780        N  0.37414860  0.50205752  0.89982356    -0.34900
N781        N  0.41013890  0.55417062  0.86453668    -0.55500
N782        N  0.37606176  0.60161675  0.90497358    -0.34900
N783        N  0.34226201  0.55005084  0.94241406    -0.55500
C784        C  0.39623521  0.48393958  0.88251750     0.28700
C785        C  0.36026833  0.48185514  0.92261876     0.28700
C786        C  0.40030466  0.62007819  0.89188316     0.28700
C787        C  0.36571801  0.61780122  0.93202497     0.28700
C788        C  0.42008586  0.52808486  0.84628645     0.37300
C789        C  0.41960015  0.58196419  0.84869664     0.37300
C790        C  0.32506910  0.52300166  0.95175416     0.37300
C791        C  0.32603038  0.57697781  0.95362621     0.37300
C792        C  0.39585551  0.45198687  0.89441920    -0.20200
C793        C  0.37357373  0.45065785  0.91950811    -0.20200
C794        C  0.40581529  0.64787557  0.91108707    -0.20200
C795        C  0.38396080  0.64640816  0.93653821    -0.20200
C796        C  0.43689844  0.53941687  0.81889105    -0.21200
C797        C  0.43632895  0.57357507  0.82028462    -0.21200
C798        C  0.29796000  0.53281458  0.96984611    -0.21200
C799        C  0.29843781  0.56702822  0.97081992    -0.21200
C800        C  0.41557238  0.49442567  0.85515714    -0.16600
C801        C  0.33453111  0.48983250  0.94494299    -0.16600
C802        C  0.33738391  0.60995885  0.94983191    -0.16600
C803        C  0.41500292  0.61435767  0.86129395    -0.16600
H804        H  0.40956753  0.43126724  0.88554495     0.16300
H805        H  0.36754506  0.42881375  0.93342054     0.16300
H806        H  0.42325422  0.66754952  0.90673500     0.16300
H807        H  0.38105046  0.66481988  0.95565114     0.16300
H808        H  0.44855368  0.52464303  0.80003381     0.14600
H809        H  0.44767831  0.59023683  0.80296458     0.14600
H810        H  0.27979588  0.51700732  0.98114375     0.14600
H811        H  0.28091722  0.58270843  0.98325143     0.14600
H812        H  0.36768546  0.52620016  0.89508931     0.27900
H813        H  0.36484059  0.58121502  0.89422061     0.27900
N814        N  0.50893521  0.36282308  0.89869465    -0.34900
N815        N  0.55467552  0.40834385  0.86454308    -0.55500
N816        N  0.60648442  0.38474079  0.90490960    -0.34900
N817        N  0.56134271  0.34166717  0.94204745    -0.55500
C818        C  0.48762651  0.38157772  0.88130502     0.28700
C819        C  0.49146730  0.34473731  0.92082707     0.28700
C820        C  0.62137384  0.41058734  0.89033771     0.28700
C821        C  0.62461842  0.37705399  0.93118901     0.28700
C822        C  0.52786444  0.41239535  0.84583020     0.37300
C823        C  0.58027005  0.42121209  0.84766624     0.37300
C824        C  0.53823144  0.31938775  0.95130262     0.37300
C825        C  0.59059993  0.33112413  0.95360990     0.37300
C826        C  0.45613876  0.37439365  0.89191769    -0.20200
C827        C  0.45853927  0.35167706  0.91685104    -0.20200
C828        C  0.64904622  0.41979063  0.90773769    -0.20200
C829        C  0.65103814  0.39869654  0.93371543    -0.20200
C830        C  0.53639493  0.42846094  0.81702651    -0.21200
C831        C  0.56969482  0.43376167  0.81807608    -0.21200
C832        C  0.55288133  0.29491443  0.96972988    -0.21200
C833        C  0.58603052  0.30218857  0.97094096    -0.21200
C834        C  0.49554619  0.40411266  0.85541142    -0.16600
C835        C  0.50412130  0.32144137  0.94386643    -0.16600
C836        C  0.62092543  0.34814475  0.94959067    -0.16600
C837        C  0.61245083  0.42369297  0.86001037    -0.16600
H838        H  0.43355535  0.38354976  0.88203969     0.16300
H839        H  0.43820369  0.34146098  0.93046520     0.16300
H840        H  0.66646944  0.43905030  0.90178817     0.16300
H841        H  0.67048125  0.39846937  0.95169207     0.16300
H842        H  0.52029333  0.43569436  0.79733236     0.14600
H843        H  0.58427728  0.44609786  0.79960939     0.14600
H844        H  0.54098983  0.27384665  0.98084236     0.14600
H845        H  0.60457082  0.28802879  0.98341120     0.14600
H846        H  0.53394391  0.36170844  0.89484664     0.27900
H847        H  0.58729573  0.37077062  0.89555309     0.27900
N848        N  0.37774169  0.36026635  0.75722182    -0.34900
N849        N  0.41110196  0.40213490  0.70754603    -0.55500
N850        N  0.38767554  0.35752120  0.65798170    -0.34900
N851        N  0.35699261  0.31351115  0.70729046    -0.55500
C852        C  0.39475163  0.38107302  0.77711727     0.28700
C853        C  0.36298213  0.33719719  0.77644156     0.28700
C854        C  0.40915667  0.37608917  0.64076564     0.28700
C855        C  0.38357529  0.32919314  0.64099246     0.28700
C856        C  0.41741894  0.42041775  0.73468683     0.37300
C857        C  0.41859853  0.42076395  0.68094607     0.37300
C858        C  0.33865634  0.30147551  0.73238482     0.37300
C859        C  0.34606523  0.29935577  0.67915791     0.37300
C860        C  0.39017513  0.37127533  0.80942033    -0.20200
C861        C  0.37035745  0.34390828  0.80891080    -0.20200
C862        C  0.41916191  0.35919482  0.61284257    -0.20200
C863        C  0.40304816  0.32951127  0.61301909    -0.20200
C864        C  0.42974674  0.45089428  0.72524982    -0.21200
C865        C  0.43001612  0.45128424  0.69123480    -0.21200
C866        C  0.31638677  0.27867077  0.72013920    -0.21200
C867        C  0.32095269  0.27745783  0.68645201    -0.21200
C868        C  0.41341679  0.40941936  0.76766492    -0.16600
C869        C  0.34211195  0.31083427  0.76603472    -0.16600
C870        C  0.35933997  0.30542167  0.64736959    -0.16600
C871        C  0.41750567  0.40898079  0.64797675    -0.16600
H872        H  0.39945893  0.38299739  0.83140810     0.16300
H873        H  0.36223936  0.33057216  0.83020878     0.16300
H874        H  0.43582710  0.36766680  0.59396728     0.16300
H875        H  0.40456288  0.31070978  0.59411500     0.16300
H876        H  0.43753373  0.47084606  0.74118927     0.14600
H877        H  0.43857720  0.47126096  0.67592005     0.14600
H878        H  0.29852988  0.26464493  0.73396482     0.14600
H879        H  0.30745810  0.26213985  0.66933347     0.14600
H880        H  0.37566718  0.36239002  0.73209931     0.27900
H881        H  0.37393985  0.36510402  0.67813376     0.27900
N882        N  0.37668587  0.35405466  0.03672770    -0.34900
N883        N  0.33230791  0.38599370  0.08358213    -0.55500
N884        N  0.36574602  0.35095626  0.13602503    -0.34900
N885        N  0.40812024  0.31641985  0.09020370    -0.55500
C886        C  0.35603575  0.36999939  0.01594584     0.28700
C887        C  0.39390892  0.33138865  0.01899439     0.28700
C888        C  0.33797858  0.36088391  0.15100465     0.28700
C889        C  0.37864944  0.32720509  0.15497132     0.28700
C890        C  0.32533577  0.40451462  0.05697886     0.37300
C891        C  0.31899397  0.40133365  0.11007618     0.37300
C892        C  0.42759033  0.30698137  0.06473757     0.37300
C893        C  0.42380070  0.30922110  0.11875266     0.37300
C894        C  0.36051486  0.35747717  0.98454829    -0.20200
C895        C  0.38400977  0.33323578  0.98647415    -0.20200
C896        C  0.33275578  0.34270538  0.17926968    -0.20200
C897        C  0.35858560  0.32143191  0.18183254    -0.20200
C898        C  0.30664608  0.43142696  0.06659266    -0.21200
C899        C  0.30284185  0.42952679  0.10023654    -0.21200
C900        C  0.45576579  0.29282881  0.07734435    -0.21200
C901        C  0.45356134  0.29464223  0.11139188    -0.21200
C902        C  0.33421172  0.39646202  0.02408438    -0.16600
C903        C  0.41975065  0.31050101  0.03051768    -0.16600
C904        C  0.41000655  0.31396917  0.15085508    -0.16600
C905        C  0.32029007  0.38911495  0.14261541    -0.16600
H906        H  0.34826115  0.36507487  0.96236288     0.16300
H907        H  0.39301757  0.31888324  0.96595008     0.16300
H908        H  0.31307853  0.34552839  0.19689547     0.16300
H909        H  0.36277412  0.30444226  0.20174473     0.16300
H910        H  0.29673366  0.45042359  0.05100933     0.14600
H911        H  0.28934816  0.44660359  0.11559599     0.14600
H912        H  0.47595246  0.28254488  0.06346860     0.14600
H913        H  0.47142773  0.28561887  0.12866446     0.14600
H914        H  0.38001281  0.35949412  0.06134836     0.27900
H915        H  0.37722894  0.36234367  0.11627151     0.27900
N916        N  0.38162572  0.21866961  0.89942833    -0.34900
N917        N  0.42383795  0.16693757  0.92613771    -0.55500
N918        N  0.38473559  0.11876061  0.88929424    -0.34900
N919        N  0.34504861  0.16951074  0.86034671    -0.55500
C920        C  0.40404608  0.23736906  0.91591623     0.28700
C921        C  0.36531268  0.23863954  0.87826134     0.28700
C922        C  0.41127976  0.10074731  0.89667938     0.28700
C923        C  0.36850629  0.10200567  0.86576398     0.28700
C924        C  0.43315412  0.19221542  0.94623317     0.37300
C925        C  0.43548942  0.13824687  0.93877943     0.37300
C926        C  0.32749473  0.19665382  0.85311067     0.37300
C927        C  0.32631414  0.14295026  0.85261124     0.37300
C928        C  0.40125475  0.26973112  0.90549204    -0.20200
C929        C  0.37716531  0.27048011  0.88195160    -0.20200
C930        C  0.41233060  0.07265272  0.87696425    -0.20200
C931        C  0.38514291  0.07337370  0.85754446    -0.20200
C932        C  0.45159569  0.17940108  0.97166741    -0.21200
C933        C  0.45291450  0.14538858  0.96706286    -0.21200
C934        C  0.29751474  0.18725113  0.84000686    -0.21200
C935        C  0.29661585  0.15316478  0.84009215    -0.21200
C936        C  0.42617989  0.22658028  0.94092230    -0.16600
C937        C  0.33891369  0.22958664  0.85687057    -0.16600
C938        C  0.33720080  0.10995635  0.85464579    -0.16600
C939        C  0.43136493  0.10624311  0.92399645    -0.16600
H940        H  0.41503876  0.29085582  0.91393601     0.16300
H941        H  0.36879950  0.29229720  0.86960692     0.16300
H942        H  0.43005963  0.05290015  0.87757370     0.16300
H943        H  0.37790450  0.05448278  0.84012490     0.16300
H944        H  0.46288332  0.19310795  0.99150771     0.14600
H945        H  0.46547158  0.12798520  0.98256996     0.14600
H946        H  0.27820000  0.20325511  0.83155690     0.14600
H947        H  0.27680138  0.13772688  0.83126621     0.14600
H948        H  0.37690067  0.19393319  0.90336439     0.27900
H949        H  0.37610131  0.13913818  0.90215352     0.27900
N950        N  0.24342024  0.35728312  0.89199209    -0.34900
N951        N  0.19314613  0.39660645  0.92458173    -0.55500
N952        N  0.14517040  0.36370254  0.88355331    -0.34900
N953        N  0.19449943  0.32672825  0.84842614    -0.55500
C954        C  0.26221159  0.37991343  0.90815963     0.28700
C955        C  0.26274667  0.34178776  0.86954296     0.28700
C956        C  0.12847651  0.38928771  0.89627174     0.28700
C957        C  0.12965691  0.35519090  0.85568604     0.28700
C958        C  0.21885542  0.40550411  0.94350415     0.37300
C959        C  0.16553237  0.40575393  0.94065991     0.37300
C960        C  0.22019002  0.30686229  0.84171488     0.37300
C961        C  0.16712672  0.31158123  0.83697084     0.37300
C962        C  0.29387492  0.37853171  0.89588610    -0.20200
C963        C  0.29419208  0.35462864  0.87174816    -0.20200
C964        C  0.10254916  0.39762895  0.87622666    -0.20200
C965        C  0.10343873  0.37619098  0.85028551    -0.20200
C966        C  0.20750374  0.42133164  0.97157831    -0.21200
C967        C  0.17363541  0.42114342  0.96993943    -0.21200
C968        C  0.20908780  0.27882593  0.82538839    -0.21200
C969        C  0.17537669  0.28176223  0.82252695    -0.21200
C970        C  0.25223481  0.40056005  0.93486507    -0.16600
C971        C  0.25344018  0.31511055  0.84843273    -0.16600
C972        C  0.13560735  0.32615049  0.83806187    -0.16600
C973        C  0.13366497  0.40233913  0.92741381    -0.16600
H974        H  0.31478706  0.39301098  0.90370673     0.16300
H975        H  0.31537019  0.34738622  0.85762869     0.16300
H976        H  0.08443978  0.41662451  0.88040114     0.16300
H977        H  0.08601244  0.37537886  0.83036464     0.16300
H978        H  0.22207699  0.43189515  0.99114692     0.14600
H979        H  0.15699532  0.43190691  0.98767974     0.14600
H980        H  0.22374274  0.25850210  0.81638947     0.14600
H981        H  0.15898062  0.26430094  0.81083221     0.14600
H982        H  0.21924142  0.35134457  0.89714656     0.27900
H983        H  0.16363314  0.35059947  0.89517637     0.27900
C984        C  0.72425803  0.69764983  0.16508167     0.81900
N985        N  0.71140222  0.68595153  0.19386529    -0.76400
C986        C  0.68470273  0.70065376  0.20817457     0.84400
N987        N  0.67007357  0.72639150  0.19219796    -0.76300
C988        C  0.68255652  0.73819041  0.16329021     0.84500
N989        N  0.70946678  0.72350621  0.15002805    -0.78000
N990        N  0.62392261  0.64015865  0.24649441    -0.34900
N991        N  0.58171818  0.60783729  0.29702519    -0.55500
N992        N  0.61607155  0.64506323  0.34658298    -0.34900
N993        N  0.65680108  0.67959935  0.29614126    -0.55500
C994        C  0.60570573  0.61983164  0.22723467     0.28700
C995        C  0.64272421  0.65937929  0.22649229     0.28700
C996        C  0.58963589  0.63474073  0.36405384     0.28700
C997        C  0.63016850  0.66967068  0.36403224     0.28700
C998        C  0.57213966  0.59002944  0.27054935     0.37300
C999        C  0.56609446  0.59527169  0.32363879     0.37300
C1000       C  0.67421671  0.69046027  0.26976786     0.37300
C1001       C  0.67200558  0.69035382  0.32381899     0.37300
C1002       C  0.61326920  0.62614135  0.19461798    -0.20200
C1003       C  0.63610854  0.65101019  0.19414787    -0.20200
C1004       C  0.58696262  0.65307524  0.39270336    -0.20200
C1005       C  0.61242626  0.67507022  0.39270210    -0.20200
C1006       C  0.54971626  0.56618510  0.28039592    -0.21200
C1007       C  0.54595324  0.56946962  0.31396785    -0.21200
C1008       C  0.70056486  0.70901113  0.28091053    -0.21200
C1009       C  0.69938691  0.70862558  0.31498857    -0.21200
C1010       C  0.58254981  0.59541349  0.23756353    -0.16600
C1011       C  0.66663541  0.68347525  0.23600713    -0.16600
C1012       C  0.66008100  0.68557495  0.35656392    -0.16600
C1013       C  0.56888518  0.60799544  0.35611143    -0.16600
H1014       H  0.60370167  0.61381494  0.17310882     0.16300
H1015       H  0.64700095  0.66126140  0.17223972     0.16300
H1016       H  0.56864159  0.65073658  0.41179580     0.16300
H1017       H  0.61738291  0.69298067  0.41185113     0.16300
H1018       H  0.53723499  0.54836236  0.26496958     0.14600
H1019       H  0.52993905  0.55487502  0.32937654     0.14600
H1020       H  0.71894227  0.72118812  0.26607125     0.14600
H1021       H  0.71631428  0.72099494  0.33135379     0.14600
H1022       H  0.62358894  0.64025402  0.27170938     0.27900
H1023       H  0.62569303  0.63445467  0.32548180     0.27900
C1024       C  0.72313487  0.57693510  0.03996015     0.81900
N1025       N  0.70964345  0.54871431  0.05230197    -0.76400
C1026       C  0.68279661  0.53453382  0.03793937     0.84400
N1027       N  0.66858502  0.54980785  0.01186206    -0.76300
C1028       C  0.68157498  0.57815708  0.99941597     0.84500
N1029       N  0.70860773  0.59169010  0.01382159    -0.78000
C1030       C  0.56070373  0.70294826  0.00265447     0.81900
N1031       N  0.57268270  0.73171272  0.01585451    -0.76400
C1032       C  0.55863468  0.74609361  0.04295297     0.84400
N1033       N  0.53267162  0.73032282  0.05755704    -0.76300
C1034       C  0.51987684  0.70163963  0.04475674     0.84500
N1035       N  0.53466070  0.68783525  0.01774590    -0.78000
C1036       C  0.56989978  0.53785897  0.16722146     0.81900
N1037       N  0.54394635  0.55257434  0.15236794    -0.76400
C1038       C  0.52903453  0.57899199  0.16658400     0.84400
N1039       N  0.54031107  0.59090363  0.19559360    -0.76300
C1040       C  0.56619019  0.57668164  0.21070152     0.84500
N1041       N  0.58137468  0.55045299  0.19612607    -0.78000
N1042       N  0.48906149  0.63797860  0.10686094    -0.34900
N1043       N  0.43584889  0.67616360  0.07836852    -0.55500
N1044       N  0.39169473  0.64422882  0.12512442    -0.34900
N1045       N  0.44397307  0.60952073  0.15593750    -0.55500
C1046       C  0.50660248  0.66069699  0.08950978     0.28700
C1047       C  0.50998997  0.62225935  0.12737860     0.28700
C1048       C  0.37300848  0.66763199  0.11154860     0.28700
C1049       C  0.37812253  0.63711165  0.15446955     0.28700
C1050       C  0.46030967  0.68498997  0.05748856     0.37300
C1051       C  0.40670642  0.68182007  0.06335096     0.37300
C1052       C  0.46979520  0.58955633  0.16061654     0.37300
C1053       C  0.41833777  0.59587837  0.17204847     0.37300
C1054       C  0.53910886  0.65872934  0.09895784    -0.20200
C1055       C  0.54125853  0.63464360  0.12252903    -0.20200
C1056       C  0.34762070  0.67608185  0.13263610    -0.20200
C1057       C  0.35092889  0.65678863  0.15992334    -0.20200
C1058       C  0.44649065  0.69740873  0.02908691    -0.21200
C1059       C  0.41262916  0.69481319  0.03254172    -0.21200
C1060       C  0.46064867  0.56322230  0.18031787    -0.21200
C1061       C  0.42791018  0.56722401  0.18751040    -0.21200
C1062       C  0.49465248  0.68205167  0.06429405    -0.16600
C1063       C  0.50199163  0.59648982  0.14981569    -0.16600
C1064       C  0.38704964  0.61028468  0.17394219    -0.16600
C1065       C  0.37545696  0.67733915  0.07878096    -0.16600
H1066       H  0.55941558  0.67281159  0.08954024     0.16300
H1067       H  0.56344870  0.62713099  0.13464898     0.16300
H1068       H  0.32808679  0.69343864  0.12819690     0.16300
H1069       H  0.33441175  0.65622858  0.18072606     0.16300
H1070       H  0.45943546  0.70672939  0.00785945     0.14600
H1071       H  0.39452285  0.70244232  0.01485038     0.14600
H1072       H  0.47605408  0.54343241  0.18890432     0.14600
H1073       H  0.41301367  0.55118946  0.20261286     0.14600
H1074       H  0.46446428  0.63237661  0.10412725     0.27900
H1075       H  0.41013770  0.63130963  0.11310861     0.27900
N1076       N  0.62651707  0.49992380  0.10303023    -0.34900
N1077       N  0.65333098  0.44772534  0.05941634    -0.55500
N1078       N  0.61997358  0.40028697  0.10010054    -0.34900
N1079       N  0.59111663  0.45129572  0.14169685    -0.55500
C1080       C  0.64085045  0.51847370  0.07932125     0.28700
C1081       C  0.60674907  0.52000556  0.12118624     0.28700
C1082       C  0.62707194  0.38230924  0.07308957     0.28700
C1083       C  0.59544529  0.38435683  0.11553972     0.28700
C1084       C  0.67094420  0.47376676  0.04817073     0.37300
C1085       C  0.66709293  0.41961529  0.04728994     0.37300
C1086       C  0.58434797  0.47810833  0.16026854     0.37300
C1087       C  0.58312041  0.42443961  0.15954477     0.37300
C1088       C  0.63031851  0.55082898  0.08285396    -0.20200
C1089       C  0.60895238  0.55178320  0.10896250    -0.20200
C1090       C  0.60642051  0.35518206  0.07093363    -0.20200
C1091       C  0.58636811  0.35646958  0.09785310    -0.20200
C1092       C  0.69564877  0.46209030  0.02774670    -0.21200
C1093       C  0.69338293  0.42786674  0.02742841    -0.21200
C1094       C  0.57124600  0.46821082  0.19010913    -0.21200
C1095       C  0.57085803  0.43409482  0.18979115    -0.21200
C1096       C  0.66442894  0.50774246  0.05555102    -0.16600
C1097       C  0.58800760  0.51112414  0.14947899    -0.16600
C1098       C  0.58437099  0.39182313  0.14721372    -0.16600
C1099       C  0.65460150  0.38716951  0.05323094    -0.16600
H1100       H  0.63747553  0.57184412  0.06833931     0.16300
H1101       H  0.59697528  0.57370887  0.11819909     0.16300
H1102       H  0.60665074  0.33588682  0.05246557     0.16300
H1103       H  0.56795649  0.33835377  0.10432877     0.16300
H1104       H  0.71352622  0.47669526  0.01455341     0.14600
H1105       H  0.70886688  0.41108942  0.01374452     0.14600
H1106       H  0.56275888  0.48387002  0.20993839     0.14600
H1107       H  0.56165368  0.41830116  0.20906265     0.14600
H1108       H  0.63125738  0.47527507  0.10730727     0.27900
H1109       H  0.63351344  0.41997062  0.10949004     0.27900
N1110       N  0.62191956  0.64142831  0.96489581    -0.34900
N1111       N  0.59300168  0.68501029  0.91614214    -0.55500
N1112       N  0.63138149  0.64902516  0.86647257    -0.34900
N1113       N  0.66208794  0.60770650  0.91414804    -0.55500
C1114       C  0.60409793  0.66170757  0.98497307     0.28700
C1115       C  0.64166915  0.62249516  0.98395260     0.28700
C1116       C  0.62231321  0.67672135  0.85097349     0.28700
C1117       C  0.65747087  0.63716305  0.84993645     0.28700
C1118       C  0.57336593  0.69309533  0.94187808     0.37300
C1119       C  0.57847703  0.69574116  0.88822645     0.37300
C1120       C  0.67020407  0.58882330  0.94000003     0.37300
C1121       C  0.67300739  0.59222200  0.88667266     0.37300
C1122       C  0.61238011  0.65493394  0.01714166    -0.20200
C1123       C  0.63595937  0.63074806  0.01650057    -0.20200
C1124       C  0.64320461  0.68302917  0.82487241    -0.20200
C1125       C  0.66549460  0.65789227  0.82417519    -0.20200
C1126       C  0.54637375  0.71002088  0.93020835    -0.21200
C1127       C  0.54938412  0.71128975  0.89627040    -0.21200
C1128       C  0.68712416  0.56123913  0.92882867    -0.21200
C1129       C  0.68849869  0.56319908  0.89495066    -0.21200
C1130       C  0.57970868  0.68534324  0.97553402    -0.16600
C1131       C  0.66374623  0.59694991  0.97343664    -0.16600
C1132       C  0.67120993  0.60604103  0.85495008    -0.16600
C1133       C  0.59253040  0.69266073  0.85619683    -0.16600
H1134       H  0.60192665  0.66559263  0.03902479     0.16300
H1135       H  0.64708970  0.61999819  0.03782547     0.16300
H1136       H  0.64152247  0.70289168  0.80734088     0.16300
H1137       H  0.68469124  0.65456169  0.80611393     0.16300
H1138       H  0.52628705  0.71982878  0.94456897     0.14600
H1139       H  0.53236514  0.72267509  0.87956604     0.14600
H1140       H  0.69743360  0.54176123  0.94354092     0.14600
H1141       H  0.70046093  0.54597523  0.87849914     0.14600
H1142       H  0.62010327  0.63980484  0.93966139     0.27900
H1143       H  0.61809181  0.63689349  0.88463247     0.27900
N1144       N  0.75977414  0.63727084  0.10230110    -0.34900
N1145       N  0.81028419  0.67785786  0.13513569    -0.55500
N1146       N  0.85864869  0.64546195  0.09465175    -0.34900
N1147       N  0.80909201  0.60641207  0.05983618    -0.55500
C1148       C  0.74048311  0.65647829  0.12181851     0.28700
C1149       C  0.74003194  0.61903287  0.08223694     0.28700
C1150       C  0.87618903  0.67104406  0.10651938     0.28700
C1151       C  0.87515256  0.63392138  0.06845547     0.28700
C1152       C  0.78425012  0.68737341  0.15351212     0.37300
C1153       C  0.83771029  0.69042060  0.14933128     0.37300
C1154       C  0.78313025  0.58770908  0.05069845     0.37300
C1155       C  0.83650697  0.59103351  0.04905124     0.37300
C1156       C  0.70800603  0.64987917  0.11422317    -0.20200
C1157       C  0.70773838  0.62651111  0.08958262    -0.20200
C1158       C  0.90384014  0.67621299  0.08735539    -0.20200
C1159       C  0.90314100  0.65271357  0.06314167    -0.20200
C1160       C  0.79525326  0.70699495  0.17928333    -0.21200
C1161       C  0.82907245  0.70858820  0.17685186    -0.21200
C1162       C  0.79416420  0.56060501  0.03291852    -0.21200
C1163       C  0.82804016  0.56245403  0.03234593    -0.21200
C1164       C  0.75076920  0.67932737  0.14685702    -0.16600
C1165       C  0.74979511  0.59492638  0.05825082    -0.16600
C1166       C  0.86864438  0.60375183  0.05308132    -0.16600
C1167       C  0.86994056  0.68712980  0.13627072    -0.16600
H1168       H  0.68649717  0.66037864  0.12560652     0.16300
H1169       H  0.68603254  0.61568633  0.07889891     0.16300
H1170       H  0.92303584  0.69431844  0.09114198     0.16300
H1171       H  0.92179526  0.64886695  0.04459679     0.16300
H1172       H  0.78046953  0.71885403  0.19796170     0.14600
H1173       H  0.84531150  0.72222725  0.19293699     0.14600
H1174       H  0.77940592  0.54120334  0.02208441     0.14600
H1175       H  0.84446484  0.54516605  0.02054343     0.14600
H1176       H  0.78510606  0.63622337  0.10314334     0.27900
H1177       H  0.83881261  0.63396684  0.10601227     0.27900
N1178       N  0.62208307  0.77884541  0.10390508    -0.34900
N1179       N  0.67036410  0.82431018  0.13018861    -0.55500
N1180       N  0.63661726  0.87770229  0.09480710    -0.34900
N1181       N  0.59061666  0.83295035  0.06527033    -0.55500
C1182       C  0.64182299  0.75752449  0.12054595     0.28700
C1183       C  0.60284334  0.76089450  0.08316109     0.28700
C1184       C  0.66571477  0.89152325  0.10229386     0.28700
C1185       C  0.62298290  0.89689912  0.07166564     0.28700
C1186       C  0.67760966  0.79838127  0.14959840     0.37300
C1187       C  0.68599606  0.85094895  0.14283305     0.37300
C1188       C  0.57054130  0.80735437  0.05699023     0.37300
C1189       C  0.57556862  0.86193448  0.05739360     0.37300
C1190       C  0.63447725  0.72567843  0.11070117    -0.20200
C1191       C  0.61046595  0.72784175  0.08721119    -0.20200
C1192       C  0.67095764  0.91933779  0.08327198    -0.20200
C1193       C  0.64395117  0.92271852  0.06386936    -0.20200
C1194       C  0.69884658  0.80847275  0.17420130    -0.21200
C1195       C  0.70393810  0.84186162  0.17007021    -0.21200
C1196       C  0.54247611  0.82032817  0.04290880    -0.21200
C1197       C  0.54541129  0.85466352  0.04366306    -0.21200
C1198       C  0.66602881  0.76564663  0.14472745    -0.16600
C1199       C  0.57762051  0.77271474  0.06156472    -0.16600
C1200       C  0.59058611  0.89407773  0.06063877    -0.16600
C1201       C  0.68496783  0.88296378  0.12927839    -0.16600
H1202       H  0.64534415  0.70310616  0.11938811     0.16300
H1203       H  0.59969575  0.70717042  0.07466283     0.16300
H1204       H  0.69155209  0.93619730  0.08430972     0.16300
H1205       H  0.63977623  0.94250557  0.04670054     0.16300
H1206       H  0.70934299  0.79342401  0.19327858     0.14600
H1207       H  0.71927774  0.85756818  0.18516072     0.14600
H1208       H  0.52179829  0.80650741  0.03348279     0.14600
H1209       H  0.52783249  0.87213705  0.03434549     0.14600
H1210       H  0.62097474  0.80411210  0.10713744     0.27900
H1211       H  0.62514592  0.85872652  0.10750091     0.27900
O1212       O  0.70117928  0.49262622  0.67112689    -0.76800
C1213       C  0.79005214  0.55779231  0.69014433     0.84300
O1214       O  0.77833792  0.44964611  0.74565773    -0.77900
O1215       O  0.76380670  0.56719759  0.79420800    -0.79400
O1216       O  0.66262412  0.56075582  0.74675295    -0.79200
O1217       O  0.66699906  0.47963279  0.71151730    -0.77800
Zn1218     Zn  0.73940429  0.50687498  0.69768620     1.55700
O1219       O  0.70635331  0.59159218  0.74392158    -0.79200
Cd1220     Cd  0.68148431  0.51375913  0.74599355     1.59700
Cd1221     Cd  0.75128433  0.48547494  0.77456020     1.59600
O1222       O  0.66815518  0.49247953  0.78822738    -0.79200
O1223       O  0.72997087  0.51622835  0.74293427    -1.89700
Cd1224     Cd  0.74589612  0.56173043  0.74906857     1.59900
O1225       O  0.71231754  0.46293100  0.80173815    -0.79200
O1226       O  0.78480236  0.56977766  0.71846067    -0.77800
C1227       C  0.77950251  0.44727307  0.71416233     0.84700
C1228       C  0.67926963  0.47409814  0.68339386     0.84400
O1229       O  0.77027381  0.53802418  0.67624316    -0.76800
C1230       C  0.68237982  0.58069792  0.76052028     0.85200
O1231       O  0.76519971  0.46748400  0.69590837    -0.76900
C1232       C  0.68187106  0.47028596  0.80490040     0.85300
C1233       C  0.78010934  0.54755745  0.81165535     0.85700
O1234       O  0.78047127  0.51613949  0.80666136    -0.79300
O1235       O  0.91964680  0.98486872  0.45696397    -0.76800
C1236       C  0.96028290  0.94090548  0.55781433     0.84300
O1237       O  0.95957004  0.06351291  0.52317710    -0.77900
O1238       O  0.05144420  0.98268162  0.51745954    -0.79400
O1239       O  0.04200530  0.96104724  0.43376501    -0.79200
O1240       O  0.95516420  0.99013589  0.41762200    -0.77800
Zn1241     Zn  0.94179717  0.98626439  0.50068536     1.55700
O1242       O  0.03769626  0.92437376  0.47377087    -0.79200
Cd1243     Cd  0.99975357  0.99102952  0.44068220     1.59700
Cd1244     Cd  0.00248856  0.03616413  0.50935247     1.59600
O1245       O  0.01554992  0.03452197  0.42588132    -0.79200
O1246       O  0.98726839  0.99340425  0.48796382    -1.89700
Cd1247     Cd  0.01259102  0.95548280  0.50456300     1.59900
O1248       O  0.02628348  0.06486643  0.47061199    -0.79200
O1249       O  0.98895407  0.93662455  0.54623861    -0.77800
C1250       C  0.92949355  0.05425597  0.52370365     0.84700
C1251       C  0.93503489  0.00398332  0.43725366     0.84400
O1252       O  0.93811694  0.95558249  0.54125088    -0.76800
C1253       C  0.05372987  0.93699443  0.45011973     0.85200
O1254       O  0.92101889  0.02526873  0.51677602    -0.76900
C1255       C  0.02593146  0.06061365  0.43914086     0.85300
C1256       C  0.04446185  0.98931251  0.54654051     0.85700
O1257       O  0.02731631  0.01521200  0.55198873    -0.79300
C1258       C  0.54313245  0.08569233  0.71216882     0.81900
N1259       N  0.55653173  0.05747227  0.69953864    -0.76400
C1260       C  0.54506206  0.04406791  0.67095720     0.84400
N1261       N  0.52103281  0.05999681  0.65425983    -0.76300
C1262       C  0.50786759  0.08849508  0.66604268     0.84500
N1263       N  0.51896150  0.10115280  0.69503437    -0.78000
C1264       C  0.70269932  0.08056138  0.54194599     0.81900
N1265       N  0.69033669  0.05294854  0.55653345    -0.76400
C1266       C  0.66229171  0.03843519  0.54534132     0.84400
N1267       N  0.64585410  0.05271713  0.51993607    -0.76300
C1268       C  0.65763540  0.08054492  0.50516513     0.84500
N1269       N  0.68587934  0.09450393  0.51664430    -0.78000
C1270       C  0.53964981  0.25271240  0.54002579     0.81900
N1271       N  0.51280732  0.23816431  0.55433026    -0.76400
C1272       C  0.49891467  0.21017513  0.54132358     0.84400
N1273       N  0.51355725  0.19592080  0.51436641    -0.76300
C1274       C  0.54046484  0.20984706  0.49948981     0.84500
N1275       N  0.55353766  0.23789759  0.51303976    -0.78000
N1276       N  0.59942417  0.14350536  0.46627249    -0.34900
N1277       N  0.62220092  0.09290038  0.42036023    -0.55500
N1278       N  0.58804840  0.12880218  0.36913579    -0.34900
N1279       N  0.56225334  0.17733748  0.41382205    -0.55500
C1280       C  0.61612709  0.12322610  0.48702427     0.28700
C1281       C  0.58071097  0.16448297  0.48467946     0.28700
C1282       C  0.59234445  0.09878400  0.35560341     0.28700
C1283       C  0.56467890  0.14373689  0.35149069     0.28700
C1284       C  0.64202377  0.08519104  0.44566793     0.37300
C1285       C  0.63384263  0.07710953  0.39339836     0.37300
C1286       C  0.55591408  0.19829091  0.43912203     0.37300
C1287       C  0.55652671  0.19327645  0.38503661     0.37300
C1288       C  0.60862698  0.13215453  0.51894030    -0.20200
C1289       C  0.58651695  0.15767097  0.51739126    -0.20200
C1290       C  0.57090612  0.09417754  0.32965164    -0.20200
C1291       C  0.55330725  0.12274787  0.32703977    -0.20200
C1292       C  0.66596570  0.06343966  0.43485076    -0.21200
C1293       C  0.66095247  0.05858260  0.40163042    -0.21200
C1294       C  0.54521267  0.22799728  0.42618940    -0.21200
C1295       C  0.54627494  0.22505074  0.39204695    -0.21200
C1296       C  0.63828464  0.09708778  0.47836855    -0.16600
C1297       C  0.55944516  0.19044865  0.47338483    -0.16600
C1298       C  0.55805562  0.17744861  0.35345628    -0.16600
C1299       C  0.61926927  0.07877713  0.36196599    -0.16600
H1300       H  0.61800019  0.12138793  0.54118831     0.16300
H1301       H  0.57648001  0.17027212  0.53818915     0.16300
H1302       H  0.56956834  0.07317241  0.31319514     0.16300
H1303       H  0.53548732  0.12820241  0.30826406     0.16300
H1304       H  0.68523563  0.05251626  0.44928890     0.14600
H1305       H  0.67529137  0.04296394  0.38552119     0.14600
H1306       H  0.53799921  0.24973169  0.43988837     0.14600
H1307       H  0.53915407  0.24363564  0.37457350     0.14600
H1308       H  0.60112238  0.14341219  0.44099311     0.27900
H1309       H  0.60323825  0.14014384  0.38631481     0.27900
N1310       N  0.46769452  0.14721304  0.60445941    -0.34900
N1311       N  0.41396148  0.17710943  0.56638388    -0.55500
N1312       N  0.36984923  0.13324532  0.60159396    -0.34900
N1313       N  0.42199641  0.10205251  0.63717529    -0.55500
C1314       C  0.48533789  0.16600598  0.58301206     0.28700
C1315       C  0.48892375  0.12794052  0.62167947     0.28700
C1316       C  0.35239972  0.14367795  0.57578714     0.28700
C1317       C  0.35671516  0.10411193  0.61047148     0.28700
C1318       C  0.43873098  0.19770630  0.55740163     0.37300
C1319       C  0.38473871  0.19192991  0.55986647     0.37300
C1320       C  0.44851775  0.09596899  0.65573834     0.37300
C1321       C  0.39593286  0.08850317  0.65270420     0.37300
C1322       C  0.51818189  0.15872122  0.58732737    -0.20200
C1323       C  0.52045990  0.13493399  0.61126293    -0.20200
C1324       C  0.32872830  0.12050521  0.56744243    -0.20200
C1325       C  0.33140943  0.09538367  0.58961718    -0.20200
C1326       C  0.42495481  0.22595469  0.54418753    -0.21200
C1327       C  0.39093897  0.22254550  0.54628007    -0.21200
C1328       C  0.43931578  0.07771045  0.68301958    -0.21200
C1329       C  0.40586250  0.07324557  0.68121967    -0.21200
C1330       C  0.47325561  0.19083355  0.56089654    -0.16600
C1331       C  0.48098889  0.10517574  0.64746762    -0.16600
C1332       C  0.36395778  0.08821014  0.63971965    -0.16600
C1333       C  0.35348183  0.17596361  0.56420411    -0.16600
H1334       H  0.53863996  0.17030260  0.57544541     0.16300
H1335       H  0.54295006  0.12450151  0.62036489     0.16300
H1336       H  0.31042431  0.12243710  0.54841555     0.16300
H1337       H  0.31572349  0.07387160  0.59118546     0.16300
H1338       H  0.43802103  0.24707054  0.53456716     0.14600
H1339       H  0.37300377  0.24007942  0.53786812     0.14600
H1340       H  0.45503932  0.06850449  0.70218789     0.14600
H1341       H  0.39076531  0.05972405  0.69840689     0.14600
H1342       H  0.44263273  0.14828909  0.60795952     0.27900
H1343       H  0.38679744  0.14718962  0.61487577     0.27900
C1344       C  0.66568322  0.20458833  0.70414695     0.81900
N1345       N  0.69312064  0.19103745  0.69065199    -0.76400
C1346       C  0.70624581  0.20349825  0.66254642     0.84400
N1347       N  0.69096542  0.22899525  0.64730906    -0.76300
C1348       C  0.66336517  0.24263987  0.66033428     0.84500
N1349       N  0.65072069  0.23017262  0.68865599    -0.78000
N1350       N  0.60347731  0.28383281  0.60126467    -0.34900
N1351       N  0.64977794  0.32913568  0.63217003    -0.55500
N1352       N  0.61883345  0.38139485  0.59521119    -0.34900
N1353       N  0.57456777  0.33780268  0.56193140    -0.55500
C1354       C  0.62305852  0.26227790  0.61769288     0.28700
C1355       C  0.58413881  0.26619045  0.58036439     0.28700
C1356       C  0.64726102  0.39459932  0.60531753     0.28700
C1357       C  0.60894159  0.39962645  0.56975164     0.28700
C1358       C  0.65504544  0.30276010  0.65134097     0.37300
C1359       C  0.66103660  0.35581325  0.64867356     0.37300
C1360       C  0.55342808  0.31317755  0.55383445     0.37300
C1361       C  0.56080839  0.36725859  0.55388026     0.37300
C1362       C  0.61559232  0.23055325  0.60748138    -0.20200
C1363       C  0.59126350  0.23301837  0.58432582    -0.20200
C1364       C  0.65616651  0.42087100  0.58558089    -0.20200
C1365       C  0.63171058  0.42408499  0.56291918    -0.20200
C1366       C  0.67079221  0.31260522  0.67992349    -0.21200
C1367       C  0.67408251  0.34648921  0.67845363    -0.21200
C1368       C  0.52596553  0.32717070  0.53954045    -0.21200
C1369       C  0.53038348  0.36133306  0.54008649    -0.21200
C1370       C  0.64643246  0.27003956  0.64274695    -0.16600
C1371       C  0.55924363  0.27852458  0.55875037    -0.16600
C1372       C  0.57729418  0.39846180  0.55740554    -0.16600
C1373       C  0.66082163  0.38787853  0.63572594    -0.16600
H1374       H  0.62609123  0.20782474  0.61622430     0.16300
H1375       H  0.57957555  0.21246454  0.57236821     0.16300
H1376       H  0.67688201  0.43729852  0.58875540     0.16300
H1377       H  0.62955232  0.44358591  0.54508961     0.16300
H1378       H  0.67853075  0.29709958  0.69994408     0.14600
H1379       H  0.68530226  0.36229319  0.69674846     0.14600
H1380       H  0.50474872  0.31416950  0.53016609     0.14600
H1381       H  0.51356834  0.37951364  0.53071273     0.14600
H1382       H  0.60252024  0.30910809  0.60482139     0.27900
H1383       H  0.60474440  0.36422020  0.60798690     0.27900
N1384       N  0.60416877  0.00468005  0.61020580    -0.34900
N1385       N  0.63738316  0.95215984  0.57274526    -0.55500
N1386       N  0.59792796  0.90465870  0.60856763    -0.34900
N1387       N  0.56294367  0.95639081  0.64414160    -0.55500
C1388       C  0.62212112  0.02339931  0.58913403     0.28700
C1389       C  0.58549565  0.02530651  0.62884513     0.28700
C1390       C  0.61099897  0.88609080  0.58435064     0.28700
C1391       C  0.57090101  0.88856598  0.61901865     0.28700
C1392       C  0.65457405  0.97832067  0.56121378     0.37300
C1393       C  0.65362521  0.92425533  0.56405630     0.37300
C1394       C  0.55497825  0.98317856  0.66241068     0.37300
C1395       C  0.55067983  0.92952017  0.65954851     0.37300
C1396       C  0.61499814  0.05636368  0.59497171    -0.20200
C1397       C  0.59232390  0.05756849  0.61990653    -0.20200
C1398       C  0.59186262  0.85825384  0.57897213    -0.20200
C1399       C  0.56642478  0.85985729  0.60087226    -0.20200
C1400       C  0.68186281  0.96683276  0.54434690    -0.21200
C1401       C  0.68152382  0.93266611  0.54658454    -0.21200
C1402       C  0.53688896  0.97324465  0.68950822    -0.21200
C1403       C  0.53437345  0.93922239  0.68781283    -0.21200
C1404       C  0.64569197  0.01220112  0.56550688    -0.16600
C1405       C  0.56289211  0.01639062  0.65420388    -0.16600
C1406       C  0.55287471  0.89680600  0.64718134    -0.16600
C1407       C  0.64159018  0.89169771  0.56970564    -0.16600
H1408       H  0.62546015  0.07761384  0.58295194     0.16300
H1409       H  0.58235933  0.07990279  0.63048011     0.16300
H1410       H  0.59625706  0.83847587  0.56158080     0.16300
H1411       H  0.54736614  0.84147922  0.60387501     0.16300
H1412       H  0.70027955  0.98153607  0.53203069     0.14600
H1413       H  0.69915704  0.91596658  0.53575234     0.14600
H1414       H  0.52674422  0.98884737  0.70858194     0.14600
H1415       H  0.52166756  0.92351874  0.70509007     0.14600
H1416       H  0.60492126  0.97938004  0.61203206     0.27900
H1417       H  0.60879496  0.92509604  0.61960922     0.27900
N1418       N  0.74078068  0.14200465  0.60151216    -0.34900
N1419       N  0.79249549  0.18046341  0.63580972    -0.55500
N1420       N  0.84127804  0.14640361  0.59659194    -0.34900
N1421       N  0.78972622  0.10985022  0.56004417    -0.55500
C1422       C  0.72183716  0.16141456  0.62097354     0.28700
C1423       C  0.72065037  0.12337537  0.58233074     0.28700
C1424       C  0.86031603  0.16970036  0.61103232     0.28700
C1425       C  0.85866199  0.13383712  0.57128089     0.28700
C1426       C  0.76606519  0.19232406  0.65217609     0.37300
C1427       C  0.81966779  0.19329258  0.65026903     0.37300
C1428       C  0.76318695  0.09261443  0.54948886     0.37300
C1429       C  0.81667453  0.09563145  0.54672004     0.37300
C1430       C  0.68916376  0.15458650  0.61432026    -0.20200
C1431       C  0.68844155  0.13087510  0.59014472    -0.20200
C1432       C  0.89009906  0.17180900  0.59476882    -0.20200
C1433       C  0.88901635  0.14937314  0.56963823    -0.20200
C1434       C  0.77659980  0.21335993  0.67699746    -0.21200
C1435       C  0.81043266  0.21377808  0.67593576    -0.21200
C1436       C  0.77337402  0.06749435  0.52864410    -0.21200
C1437       C  0.80718363  0.06930571  0.52700758    -0.21200
C1438       C  0.73260371  0.18503705  0.64482802    -0.16600
C1439       C  0.72999429  0.09941104  0.55824491    -0.16600
C1440       C  0.84947269  0.10687631  0.55131059    -0.16600
C1441       C  0.85245494  0.18819878  0.63933847    -0.16600
H1442       H  0.66781796  0.16538259  0.62580289     0.16300
H1443       H  0.66649128  0.12043138  0.57955237     0.16300
H1444       H  0.91057409  0.18786801  0.60041524     0.16300
H1445       H  0.90861858  0.14477121  0.55229746     0.16300
H1446       H  0.76147920  0.22703732  0.69410551     0.14600
H1447       H  0.82635623  0.22813126  0.69172767     0.14600
H1448       H  0.75808131  0.04961362  0.51609751     0.14600
H1449       H  0.82293420  0.05330613  0.51270439     0.14600
H1450       H  0.76601079  0.14149536  0.60158731     0.27900
H1451       H  0.81885083  0.13773462  0.60491132     0.27900
N1452       N  0.60560577  0.14619090  0.74486269    -0.34900
N1453       N  0.56912656  0.11336455  0.79843284    -0.55500
N1454       N  0.61137826  0.14767076  0.84567566    -0.34900
N1455       N  0.64547389  0.18281667  0.79229453    -0.55500
C1456       C  0.58281159  0.12958793  0.72705964     0.28700
C1457       C  0.62183402  0.16685088  0.72422994     0.28700
C1458       C  0.58887400  0.13457460  0.86638562     0.28700
C1459       C  0.62898432  0.17011050  0.86297105     0.28700
C1460       C  0.55592768  0.09683015  0.77249415     0.37300
C1461       C  0.55842848  0.09857908  0.82640109     0.37300
C1462       C  0.66083514  0.19263183  0.76448318     0.37300
C1463       C  0.66438638  0.19250398  0.81783585     0.37300
C1464       C  0.58500474  0.13970098  0.69459671    -0.20200
C1465       C  0.60926982  0.16307864  0.69288208    -0.20200
C1466       C  0.59234987  0.14895048  0.89719767    -0.20200
C1467       C  0.61756502  0.17123819  0.89505731    -0.20200
C1468       C  0.53598935  0.07172232  0.78419771    -0.21200
C1469       C  0.53758578  0.07281357  0.81813977    -0.21200
C1470       C  0.68951350  0.20917941  0.77245222    -0.21200
C1471       C  0.69183578  0.20897862  0.80618544    -0.21200
C1472       C  0.56102361  0.10449003  0.73852359    -0.16600
C1473       C  0.64885642  0.18774746  0.73210764    -0.16600
C1474       C  0.65642853  0.18808747  0.85147035    -0.16600
C1475       C  0.56673503  0.10851944  0.85914476    -0.16600
H1476       H  0.57104722  0.13091966  0.67383523     0.16300
H1477       H  0.61716042  0.17527939  0.67068925     0.16300
H1478       H  0.57839321  0.14373755  0.91917772     0.16300
H1479       H  0.62665305  0.18631783  0.91506854     0.16300
H1480       H  0.52177516  0.05437846  0.76978200     0.14600
H1481       H  0.52481032  0.05653121  0.83481866     0.14600
H1482       H  0.70699279  0.22016882  0.75572795     0.14600
H1483       H  0.71136247  0.21994182  0.82049752     0.14600
H1484       H  0.61062497  0.14251090  0.76918439     0.27900
H1485       H  0.61604468  0.14015997  0.82196850     0.27900
C1486       C  0.99921031  0.71215388  0.55047084     0.81900
N1487       N  0.01556812  0.69959048  0.52382035    -0.76400
C1488       C  0.04315856  0.71445988  0.51169754     0.84400
N1489       N  0.05510161  0.74192704  0.52765540    -0.76300
C1490       C  0.03908755  0.75532164  0.55425746     0.84500
N1491       N  0.01160665  0.73963840  0.56575520    -0.78000
N1492       N  0.10423350  0.65055061  0.47954810    -0.34900
N1493       N  0.14956908  0.61903792  0.43296143    -0.55500
N1494       N  0.12268569  0.65970923  0.38251956    -0.34900
N1495       N  0.07885028  0.69317676  0.42705795    -0.55500
C1496       C  0.12523443  0.63435736  0.49982566     0.28700
C1497       C  0.08883963  0.67460916  0.49731075     0.28700
C1498       C  0.15059937  0.64910874  0.36862259     0.28700
C1499       C  0.11273477  0.68553224  0.36478001     0.28700
C1500       C  0.15295748  0.59828583  0.45839177     0.37300
C1501       C  0.16189001  0.60358423  0.40618395     0.37300
C1502       C  0.05756299  0.70105808  0.45151828     0.37300
C1503       C  0.06494658  0.70128411  0.39784537     0.37300
C1504       C  0.12267093  0.64801788  0.53094729    -0.20200
C1505       C  0.10001638  0.67321455  0.52938448    -0.20200
C1506       C  0.15921218  0.66911023  0.34245375    -0.20200
C1507       C  0.13502638  0.69224366  0.33993965    -0.20200
C1508       C  0.16819409  0.56952459  0.44783018    -0.21200
C1509       C  0.17356790  0.57278897  0.41454551    -0.21200
C1510       C  0.02996738  0.71518517  0.43767283    -0.21200
C1511       C  0.03441791  0.71483121  0.40375227    -0.21200
C1512       C  0.14570637  0.60684062  0.49128273    -0.16600
C1513       C  0.06377217  0.69658888  0.48591800    -0.16600
C1514       C  0.08123726  0.69827698  0.36675238    -0.16600
C1515       C  0.16424476  0.61844723  0.37508245    -0.16600
H1516       H  0.13567882  0.64060014  0.55267024     0.16300
H1517       H  0.09268260  0.68875803  0.54972401     0.16300
H1518       H  0.17957237  0.66593596  0.32568517     0.16300
H1519       H  0.13292259  0.71058159  0.32087891     0.16300
H1520       H  0.17505171  0.54858178  0.46258731     0.14600
H1521       H  0.18543075  0.55504270  0.39858639     0.14600
H1522       H  0.00874342  0.72451803  0.45061555     0.14600
H1523       H  0.01760679  0.72429809  0.38567416     0.14600
H1524       H  0.09958901  0.64447417  0.45522248     0.27900
H1525       H  0.10872240  0.64723341  0.39990939     0.27900
C1526       C  0.20799428  0.70963279  0.67592731     0.81900
N1527       N  0.19649818  0.69581305  0.70428594    -0.76400
C1528       C  0.16857038  0.70725689  0.71900036     0.84400
N1529       N  0.15139873  0.73177958  0.70418987    -0.76300
C1530       C  0.16197792  0.74533614  0.67554836     0.84500
N1531       N  0.19021575  0.73406437  0.66150134    -0.78000
C1532       C  0.17096154  0.54255372  0.55213358     0.81900
N1533       N  0.19802410  0.55732782  0.56552928    -0.76400
C1534       C  0.20893168  0.58709457  0.55414198     0.84400
N1535       N  0.19152662  0.60278582  0.53049284    -0.76300
C1536       C  0.16417069  0.58887570  0.51736786     0.84500
N1537       N  0.15415327  0.55868313  0.52812217    -0.78000
N1538       N  0.24485149  0.65065015  0.61286761    -0.34900
N1539       N  0.29486398  0.61913235  0.57038044    -0.55500
N1540       N  0.34389566  0.65771468  0.60451364    -0.34900
N1541       N  0.29471032  0.69052622  0.64582552    -0.55500
C1542       C  0.22542862  0.63042345  0.59458481     0.28700
C1543       C  0.22519897  0.66940129  0.63249842     0.28700
C1544       C  0.36067616  0.64788907  0.57767429     0.28700
C1545       C  0.36087442  0.68315151  0.61736416     0.28700
C1546       C  0.26900665  0.59959236  0.56260609     0.37300
C1547       C  0.32225853  0.60510482  0.55753473     0.37300
C1548       C  0.26861318  0.70097770  0.66365356     0.37300
C1549       C  0.32226112  0.70219959  0.66040411     0.37300
C1550       C  0.19300348  0.63635448  0.60295817    -0.20200
C1551       C  0.19284064  0.66082700  0.62642092    -0.20200
C1552       C  0.38815852  0.66760451  0.57320852    -0.20200
C1553       C  0.38836450  0.68982178  0.59842668    -0.20200
C1554       C  0.28004765  0.57304964  0.54401090    -0.21200
C1555       C  0.31374195  0.57640564  0.54103432    -0.21200
C1556       C  0.27975356  0.72037770  0.68951758    -0.21200
C1557       C  0.31370305  0.72076777  0.68771230    -0.21200
C1558       C  0.23564561  0.60581122  0.57138004    -0.16600
C1559       C  0.23509574  0.69313227  0.65675847    -0.16600
C1560       C  0.35451768  0.69796921  0.64766272    -0.16600
C1561       C  0.35426556  0.61921722  0.55961808    -0.16600
H1562       H  0.17151745  0.62367151  0.59388596     0.16300
H1563       H  0.17115644  0.67058364  0.63817220     0.16300
H1564       H  0.40671591  0.66549330  0.55430448     0.16300
H1565       H  0.40705430  0.70831995  0.60283831     0.16300
H1566       H  0.26540303  0.55316127  0.53391554     0.14600
H1567       H  0.33000011  0.55986477  0.52799074     0.14600
H1568       H  0.26500214  0.73273960  0.70789768     0.14600
H1569       H  0.33010026  0.73397687  0.70398438     0.14600
H1570       H  0.27008992  0.65102012  0.61229164     0.27900
H1571       H  0.32417528  0.64571961  0.61545711     0.27900
C1572       C  0.05351444  0.57951132  0.71226855     0.81900
N1573       N  0.02970008  0.59675073  0.69621289    -0.76400
C1574       C  0.01602751  0.58465631  0.66805463     0.84400
N1575       N  0.02623081  0.55494308  0.65619000    -0.76300
C1576       C  0.05021733  0.53753758  0.67150934     0.84500
N1577       N  0.06415835  0.55032985  0.69923539    -0.78000
N1578       N  0.11130769  0.50264223  0.61128421    -0.34900
N1579       N  0.06998260  0.45085329  0.64077772    -0.55500
N1580       N  0.10785411  0.40256829  0.60410967    -0.34900
N1581       N  0.14706937  0.45400090  0.57224803    -0.55500
C1582       C  0.08837627  0.52104480  0.62702877     0.28700
C1583       C  0.12718023  0.52270342  0.58978706     0.28700
C1584       C  0.08169798  0.38438722  0.61354730     0.28700
C1585       C  0.12232582  0.38602137  0.57922127     0.28700
C1586       C  0.06102271  0.47666737  0.66009892     0.37300
C1587       C  0.05881388  0.42279263  0.65514152     0.37300
C1588       C  0.16509313  0.48113179  0.56477844     0.37300
C1589       C  0.16468862  0.42706838  0.56337369     0.37300
C1590       C  0.09015927  0.55316896  0.61563446    -0.20200
C1591       C  0.11424102  0.55421369  0.59230358    -0.20200
C1592       C  0.07916445  0.35636234  0.59405202    -0.20200
C1593       C  0.10484514  0.35737057  0.57237780    -0.20200
C1594       C  0.04340916  0.46495628  0.68676734    -0.21200
C1595       C  0.04210645  0.43088365  0.68368984    -0.21200
C1596       C  0.19433933  0.47135843  0.55043936    -0.21200
C1597       C  0.19423357  0.43712658  0.54987072    -0.21200
C1598       C  0.06718707  0.51054701  0.65281720    -0.16600
C1599       C  0.15441280  0.51431524  0.56946430    -0.16600
C1600       C  0.15290134  0.39399914  0.56533359    -0.16600
C1601       C  0.06251243  0.39044404  0.64159629    -0.16600
H1602       H  0.07624986  0.57421561  0.62374179     0.16300
H1603       H  0.12182340  0.57626549  0.57954064     0.16300
H1604       H  0.06119985  0.33675447  0.59589146     0.16300
H1605       H  0.11050945  0.33868456  0.55418300     0.16300
H1606       H  0.03261169  0.47944044  0.70634890     0.14600
H1607       H  0.03004579  0.41405936  0.70036392     0.14600
H1608       H  0.21371157  0.48720562  0.54142470     0.14600
H1609       H  0.21331653  0.42149588  0.53998354     0.14600
H1610       H  0.11690893  0.47829788  0.61634802     0.27900
H1611       H  0.11731611  0.42319376  0.61610040     0.27900
N1612       N  0.97244967  0.64585621  0.61072185    -0.34900
N1613       N  0.93039944  0.59655599  0.63923240    -0.55500
N1614       N  0.87517699  0.62750135  0.60448343    -0.34900
N1615       N  0.91578252  0.67439031  0.57285756    -0.55500
C1616       C  0.99495827  0.62621135  0.62588548     0.28700
C1617       C  0.98841677  0.66505998  0.58852449     0.28700
C1618       C  0.86387031  0.59754942  0.61286536     0.28700
C1619       C  0.85516540  0.63879277  0.58088759     0.28700
C1620       C  0.95655880  0.59195060  0.65874836     0.37300
C1621       C  0.90464264  0.58253714  0.65457355     0.37300
C1622       C  0.93985969  0.69616159  0.56487116     0.37300
C1623       C  0.88607911  0.68829507  0.56611096     0.37300
C1624       C  0.02567069  0.63362450  0.61360836    -0.20200
C1625       C  0.02160784  0.65756922  0.59006076    -0.20200
C1626       C  0.83694285  0.58919251  0.59385366    -0.20200
C1627       C  0.83140981  0.61540727  0.57352550    -0.20200
C1628       C  0.94755878  0.57402696  0.68623009    -0.21200
C1629       C  0.91440903  0.56838046  0.68375451    -0.21200
C1630       C  0.92519937  0.72412970  0.55197856    -0.21200
C1631       C  0.89133099  0.71937213  0.55324985    -0.21200
C1632       C  0.98860352  0.60242050  0.65109048    -0.16600
C1633       C  0.97462205  0.69052614  0.56827508    -0.16600
C1634       C  0.85518696  0.67139407  0.56986266    -0.16600
C1635       C  0.87288420  0.58141500  0.64155230    -0.16600
H1636       H  0.04875330  0.62322604  0.62103162     0.16300
H1637       H  0.04122427  0.66838428  0.57589940     0.16300
H1638       H  0.82177395  0.56734757  0.59593082     0.16300
H1639       H  0.81133071  0.61773555  0.55645110     0.16300
H1640       H  0.96316251  0.56616505  0.70608690     0.14600
H1641       H  0.89934179  0.55503744  0.70110686     0.14600
H1642       H  0.93759933  0.74589732  0.54293664     0.14600
H1643       H  0.87285466  0.73640247  0.54490696     0.14600
H1644       H  0.94766278  0.64722907  0.61599470     0.27900
H1645       H  0.89267723  0.64113806  0.61727263     0.27900
N1646       N  0.09977931  0.78621234  0.61865773    -0.34900
N1647       N  0.05910768  0.84020727  0.59278869    -0.55500
N1648       N  0.09411843  0.88478999  0.63679148    -0.34900
N1649       N  0.13212952  0.83198870  0.66482289    -0.55500
C1650       C  0.07717944  0.76875333  0.60108869     0.28700
C1651       C  0.11599425  0.76485701  0.63855974     0.28700
C1652       C  0.06953043  0.90404425  0.62644677     0.28700
C1653       C  0.10630130  0.89920739  0.66399809     0.28700
C1654       C  0.05053071  0.81585506  0.57125295     0.37300
C1655       C  0.05058612  0.86983588  0.57962689     0.37300
C1656       C  0.15143045  0.80536088  0.66889832     0.37300
C1657       C  0.14864263  0.85831154  0.67716284     0.37300
C1658       C  0.07933045  0.73585353  0.61000410    -0.20200
C1659       C  0.10363152  0.73342885  0.63329494    -0.20200
C1660       C  0.06537326  0.93049331  0.64781060    -0.20200
C1661       C  0.08871299  0.92740382  0.67164848    -0.20200
C1662       C  0.03537568  0.83020050  0.54448801    -0.21200
C1663       C  0.03584371  0.86419828  0.54954685    -0.21200
C1664       C  0.18005944  0.81470046  0.68477427    -0.21200
C1665       C  0.17842457  0.84834667  0.68969485    -0.21200
C1666       C  0.05601267  0.78106099  0.57588096    -0.16600
C1667       C  0.14276557  0.77261051  0.66003526    -0.16600
C1668       C  0.13616895  0.89080337  0.67819522    -0.16600
C1669       C  0.05503500  0.90133843  0.59551425    -0.16600
H1670       H  0.06513902  0.71545835  0.60049436     0.16300
H1671       H  0.11155923  0.71089608  0.64463026     0.16300
H1672       H  0.04843535  0.95079081  0.64541078     0.16300
H1673       H  0.09347449  0.94484498  0.69128384     0.16300
H1674       H  0.02553437  0.81754617  0.52323838     0.14600
H1675       H  0.02613367  0.88255207  0.53313061     0.14600
H1676       H  0.20011338  0.79895906  0.69191354     0.14600
H1677       H  0.19674061  0.86360654  0.70155224     0.14600
H1678       H  0.10509834  0.81104099  0.61593501     0.27900
H1679       H  0.10474406  0.86561148  0.62358600     0.27900
N1680       N  0.11185879  0.64106162  0.75243895    -0.34900
N1681       N  0.14173652  0.68101735  0.80480395    -0.55500
N1682       N  0.11146194  0.63616093  0.85194047    -0.34900
N1683       N  0.07977958  0.59774276  0.80025804    -0.55500
C1684       C  0.12841450  0.66360550  0.73414775     0.28700
C1685       C  0.09242226  0.62310044  0.73187663     0.28700
C1686       C  0.11843885  0.66253970  0.87111664     0.28700
C1687       C  0.08988988  0.61745260  0.86883841     0.28700
C1688       C  0.15841282  0.69415465  0.77917678     0.37300
C1689       C  0.15472719  0.69350663  0.83286973     0.37300
C1690       C  0.06943524  0.58241321  0.77250604     0.37300
C1691       C  0.07345876  0.57743873  0.82588109     0.37300
C1692       C  0.11963671  0.65941767  0.70155493    -0.20200
C1693       C  0.09698884  0.63440287  0.70012556    -0.20200
C1694       C  0.10064365  0.66074274  0.90015618    -0.20200
C1695       C  0.08279616  0.63220168  0.89878303    -0.20200
C1696       C  0.18196732  0.71584823  0.79113846    -0.21200
C1697       C  0.17968386  0.71536617  0.82509633    -0.21200
C1698       C  0.05564625  0.55221182  0.78074540    -0.21200
C1699       C  0.05862341  0.54888204  0.81444268    -0.21200
C1700       C  0.15190719  0.68742114  0.74531354    -0.16600
C1701       C  0.07193856  0.59561180  0.74011137    -0.16600
C1702       C  0.07875415  0.58600547  0.85936961    -0.16600
C1703       C  0.14308170  0.68608560  0.86500320    -0.16600
H1704       H  0.12910001  0.67247969  0.68061141     0.16300
H1705       H  0.08608101  0.62496764  0.67780332     0.16300
H1706       H  0.10105577  0.67784072  0.92063668     0.16300
H1707       H  0.06668579  0.62313858  0.91785892     0.16300
H1708       H  0.19900919  0.73047028  0.77690479     0.14600
H1709       H  0.19448930  0.72958540  0.84204969     0.14600
H1710       H  0.04483502  0.53428881  0.76422033     0.14600
H1711       H  0.05000517  0.52830491  0.82892078     0.14600
H1712       H  0.11434966  0.63768341  0.77730281     0.27900
H1713       H  0.12305161  0.62954286  0.83019500     0.27900
C1714       C  0.78898689  0.30569214  0.34456462     0.81900
N1715       N  0.80340139  0.27941141  0.35951703    -0.76400
C1716       C  0.83130809  0.26565498  0.34701390     0.84400
N1717       N  0.84504656  0.27888857  0.31943064    -0.76300
C1718       C  0.83096812  0.30517599  0.30406495     0.84500
N1719       N  0.80326024  0.31868199  0.31715401    -0.78000
N1720       N  0.75060259  0.36686262  0.40399878    -0.34900
N1721       N  0.70163578  0.33073538  0.36609316    -0.55500
N1722       N  0.65109377  0.36724080  0.40211952    -0.34900
N1723       N  0.69925615  0.40544839  0.43796441    -0.55500
C1724       C  0.77002515  0.35153646  0.38142009     0.28700
C1725       C  0.76881504  0.39069279  0.41891306     0.28700
C1726       C  0.63453594  0.35444221  0.37642767     0.28700
C1727       C  0.63328473  0.39301419  0.41319148     0.28700
C1728       C  0.72839307  0.31344660  0.35650668     0.37300
C1729       C  0.67475819  0.31352650  0.35637475     0.37300
C1730       C  0.72560965  0.41600334  0.45529121     0.37300
C1731       C  0.67187260  0.41560247  0.45410222     0.37300
C1732       C  0.80092013  0.36584541  0.38219030    -0.20200
C1733       C  0.80015562  0.39034019  0.40562231    -0.20200
C1734       C  0.60648457  0.37261634  0.37065659    -0.20200
C1735       C  0.60569431  0.39700322  0.39387087    -0.20200
C1736       C  0.71841648  0.28523441  0.33984381    -0.21200
C1737       C  0.68446477  0.28520617  0.33990679    -0.21200
C1738       C  0.71483941  0.43358537  0.48256828    -0.21200
C1739       C  0.68086351  0.43330322  0.48179070    -0.21200
C1740       C  0.76145824  0.32383089  0.36136218    -0.16600
C1741       C  0.75899902  0.41134099  0.44566662    -0.16600
C1742       C  0.63938966  0.41078073  0.44218926    -0.16600
C1743       C  0.64197782  0.32471016  0.36051828    -0.16600
H1744       H  0.82211787  0.35917112  0.36766439     0.16300
H1745       H  0.82067444  0.40587245  0.41229194     0.16300
H1746       H  0.58809254  0.36827658  0.35205597     0.16300
H1747       H  0.58658231  0.41521940  0.39658654     0.16300
H1748       H  0.73395129  0.26672252  0.32868060     0.14600
H1749       H  0.66877572  0.26685142  0.32860075     0.14600
H1750       H  0.72987183  0.44578908  0.50081210     0.14600
H1751       H  0.66474844  0.44554056  0.49897922     0.14600
H1752       H  0.72688384  0.36020172  0.41034364     0.27900
H1753       H  0.67145247  0.35693699  0.41337583     0.27900
C1754       C  0.78626585  0.42689906  0.46500931     0.81900
N1755       N  0.80071452  0.40889389  0.48903118    -0.76400
C1756       C  0.82964634  0.41866562  0.50251290     0.84400
N1757       N  0.84441211  0.44676526  0.49165211    -0.76300
C1758       C  0.83049503  0.46519132  0.46756414     0.84500
N1759       N  0.80170658  0.45470784  0.45386305    -0.78000
C1760       C  0.95229472  0.46635631  0.34711517     0.81900
N1761       N  0.97589250  0.45043388  0.36454690    -0.76400
C1762       C  0.98882521  0.42155403  0.35340619     0.84400
N1763       N  0.97816137  0.40865453  0.32450395    -0.76300
C1764       C  0.95452313  0.42400721  0.30684394     0.84500
N1765       N  0.94113461  0.45252573  0.31863891    -0.78000
C1766       C  0.99547287  0.29462414  0.47068454     0.81900
N1767       N  0.98262768  0.26686169  0.45585718    -0.76400
C1768       C  0.95484956  0.25170231  0.46778311     0.84400
N1769       N  0.93900840  0.26607405  0.49398333    -0.76300
C1770       C  0.95101494  0.29380871  0.50931487     0.84500
N1771       N  0.97902692  0.30794684  0.49707165    -0.78000
N1772       N  0.02793606  0.36001757  0.41154073    -0.34900
N1773       N  0.07495470  0.40564837  0.37915997    -0.55500
N1774       N  0.12650817  0.37310957  0.41242961    -0.34900
N1775       N  0.08104978  0.32879039  0.44748338    -0.55500
C1776       C  0.00785673  0.38314020  0.39829686     0.28700
C1777       C  0.01066619  0.34313670  0.43478771     0.28700
C1778       C  0.14163841  0.40083484  0.40216485     0.28700
C1779       C  0.14490331  0.36095888  0.43670045     0.28700
C1780       C  0.04797455  0.41165802  0.36127661     0.37300
C1781       C  0.10076389  0.41789093  0.36210001     0.37300
C1782       C  0.05626145  0.30773513  0.45567470     0.37300
C1783       C  0.11021407  0.31354628  0.45303432     0.37300
C1784       C  0.97746307  0.38081735  0.41324479    -0.20200
C1785       C  0.97915428  0.35585686  0.43604328    -0.20200
C1786       C  0.16942305  0.40689477  0.42062282    -0.20200
C1787       C  0.17146102  0.38163776  0.44265802    -0.20200
C1788       C  0.05663986  0.42835583  0.33284437    -0.21200
C1789       C  0.09018286  0.43214657  0.33332652    -0.21200
C1790       C  0.06996474  0.27887574  0.46749922    -0.21200
C1791       C  0.10394339  0.28237444  0.46542202    -0.21200
C1792       C  0.01559873  0.40480474  0.37169168    -0.16600
C1793       C  0.02180014  0.31528010  0.45331102    -0.16600
C1794       C  0.14179451  0.32889396  0.44856561    -0.16600
C1795       C  0.13325875  0.41781584  0.37376819    -0.16600
H1796       H  0.95607934  0.39536958  0.40812808     0.16300
H1797       H  0.95907916  0.34788545  0.45142418     0.16300
H1798       H  0.18707980  0.42661208  0.41750868     0.16300
H1799       H  0.19119117  0.37783018  0.45987481     0.16300
H1800       H  0.04048736  0.43723079  0.31388273     0.14600
H1801       H  0.10496332  0.44446083  0.31500590     0.14600
H1802       H  0.05688910  0.25744111  0.47638871     0.14600
H1803       H  0.12190095  0.26436915  0.47282686     0.14600
H1804       H  0.05154726  0.35484483  0.40358971     0.27900
H1805       H  0.10726151  0.36080630  0.40090008     0.27900
N1806       N  0.88715441  0.35601963  0.54125437    -0.34900
N1807       N  0.83999505  0.38700957  0.58814940    -0.55500
N1808       N  0.86977922  0.35013142  0.63954266    -0.34900
N1809       N  0.91474025  0.31608115  0.59390078    -0.55500
C1810       C  0.86668827  0.37238515  0.52065698     0.28700
C1811       C  0.90461766  0.33358012  0.52325591     0.28700
C1812       C  0.84189133  0.36030973  0.65428639     0.28700
C1813       C  0.88117567  0.32487186  0.65736961     0.28700
C1814       C  0.83519521  0.40648336  0.56185208     0.37300
C1815       C  0.82606770  0.40239517  0.61434532     0.37300
C1816       C  0.93611965  0.30807204  0.56944093     0.37300
C1817       C  0.92889077  0.30874665  0.62320507     0.37300
C1818       C  0.87147134  0.36046569  0.48907289    -0.20200
C1819       C  0.89506050  0.33618070  0.49076060    -0.20200
C1820       C  0.83498604  0.34083991  0.68121477    -0.20200
C1821       C  0.85977930  0.31827479  0.68310731    -0.20200
C1822       C  0.81740517  0.43412561  0.57129534    -0.21200
C1823       C  0.81175708  0.43157462  0.60456850    -0.21200
C1824       C  0.96398503  0.29472256  0.58343878    -0.21200
C1825       C  0.95961386  0.29559880  0.61734126    -0.21200
C1826       C  0.84483818  0.39875217  0.52919778    -0.16600
C1827       C  0.93012394  0.31213574  0.53488934    -0.16600
C1828       C  0.91293947  0.31206556  0.65450215    -0.16600
C1829       C  0.82527109  0.38930852  0.64651163    -0.16600
H1830       H  0.85931133  0.36849459  0.46697794     0.16300
H1831       H  0.90434934  0.32232198  0.47019571     0.16300
H1832       H  0.81490783  0.34351046  0.69840308     0.16300
H1833       H  0.86262617  0.30007924  0.70218915     0.16300
H1834       H  0.80929216  0.45406955  0.55582278     0.14600
H1835       H  0.79843775  0.44897564  0.61971827     0.14600
H1836       H  0.98540478  0.28569167  0.57060759     0.14600
H1837       H  0.97671192  0.28683241  0.63548987     0.14600
H1838       H  0.88997945  0.36119061  0.56599593     0.27900
H1839       H  0.88255251  0.36217747  0.62101331     0.27900
N1840       N  0.89377069  0.36497422  0.26896475    -0.34900
N1841       N  0.93964660  0.39280164  0.22040071    -0.55500
N1842       N  0.90213815  0.35962709  0.17025209    -0.34900
N1843       N  0.85824071  0.32940857  0.21820423    -0.55500
C1844       C  0.91612852  0.38002648  0.28862757     0.28700
C1845       C  0.87660498  0.34312810  0.28763564     0.28700
C1846       C  0.93061100  0.36577784  0.15448359     0.28700
C1847       C  0.88675506  0.33582701  0.15298171     0.28700
C1848       C  0.94758730  0.41210349  0.24639678     0.37300
C1849       C  0.95378070  0.40622329  0.19339801     0.37300
C1850       C  0.83957929  0.32033193  0.24414698     0.37300
C1851       C  0.84129777  0.32227752  0.19052582     0.37300
C1852       C  0.91274376  0.36792223  0.32023850    -0.20200
C1853       C  0.88817773  0.34475509  0.31952719    -0.20200
C1854       C  0.93366185  0.34518108  0.12740073    -0.20200
C1855       C  0.90579966  0.32626865  0.12638392    -0.20200
C1856       C  0.96768437  0.43768787  0.23594218    -0.21200
C1857       C  0.97152503  0.43399995  0.20233496    -0.21200
C1858       C  0.81057844  0.30650896  0.23280154    -0.21200
C1859       C  0.81145564  0.30821677  0.19880945    -0.21200
C1860       C  0.93845033  0.40553223  0.27947314    -0.16600
C1861       C  0.84947137  0.32317844  0.27756645    -0.16600
C1862       C  0.85445400  0.32551188  0.15839301    -0.16600
C1863       C  0.95135175  0.39251563  0.16131717    -0.16600
H1864       H  0.92622840  0.37513101  0.34192609     0.16300
H1865       H  0.87931879  0.33134570  0.34053840     0.16300
H1866       H  0.95340526  0.34471090  0.10963431     0.16300
H1867       H  0.89979055  0.30812644  0.10775163     0.16300
H1868       H  0.97855285  0.45687941  0.25096850     0.14600
H1869       H  0.98589279  0.44970942  0.18641221     0.14600
H1870       H  0.79094382  0.29620465  0.24743405     0.14600
H1871       H  0.79295523  0.29895238  0.18215731     0.14600
H1872       H  0.88958068  0.37075994  0.24461944     0.27900
H1873       H  0.89199731  0.37325524  0.18944348     0.27900
N1874       N  0.89149938  0.50237618  0.40760280    -0.34900
N1875       N  0.92858604  0.55356099  0.37130166    -0.55500
N1876       N  0.90003983  0.60171669  0.41411960    -0.34900
N1877       N  0.86570912  0.55090673  0.45287903    -0.55500
C1878       C  0.91151455  0.48305306  0.38914108     0.28700
C1879       C  0.87436891  0.48238357  0.42825474     0.28700
C1880       C  0.92211788  0.62006473  0.39759906     0.28700
C1881       C  0.89353353  0.61796568  0.44224486     0.28700
C1882       C  0.93785705  0.52678721  0.35367973     0.37300
C1883       C  0.93644367  0.58082717  0.35371826     0.37300
C1884       C  0.84589651  0.52555373  0.46169627     0.37300
C1885       C  0.85358393  0.57862257  0.46687560     0.37300
C1886       C  0.90630301  0.45037064  0.39780625    -0.20200
C1887       C  0.88317719  0.44995218  0.42227146    -0.20200
C1888       C  0.93011642  0.64810893  0.41551233    -0.20200
C1889       C  0.91214573  0.64668415  0.44394047    -0.20200
C1890       C  0.95275887  0.53720360  0.32485547    -0.21200
C1891       C  0.95128173  0.57140241  0.32460093    -0.21200
C1892       C  0.82149041  0.53712917  0.48242537    -0.21200
C1893       C  0.82624590  0.57079323  0.48555212    -0.21200
C1894       C  0.93334074  0.49331722  0.36360478    -0.16600
C1895       C  0.85027957  0.49215130  0.45174975    -0.16600
C1896       C  0.86730260  0.61060842  0.46318611    -0.16600
C1897       C  0.93236849  0.61371094  0.36539238    -0.16600
H1898       H  0.91702280  0.42869555  0.38674895     0.16300
H1899       H  0.87379148  0.42801229  0.43403557     0.16300
H1900       H  0.94652319  0.66786979  0.40841007     0.16300
H1901       H  0.91156628  0.66538467  0.46300085     0.16300
H1902       H  0.96315042  0.52177387  0.30578021     0.14600
H1903       H  0.96095004  0.58743865  0.30575783     0.14600
H1904       H  0.80216346  0.52288243  0.49384758     0.14600
H1905       H  0.81136369  0.58754514  0.49992596     0.14600
H1906       H  0.88900745  0.52744875  0.40544595     0.27900
H1907       H  0.88734611  0.58153225  0.40499608     0.27900
N1908       N  0.89091002  0.22187306  0.40545232    -0.34900
N1909       N  0.92256953  0.16581098  0.44029749    -0.55500
N1910       N  0.87721774  0.12273850  0.40685418    -0.34900
N1911       N  0.84434348  0.17736657  0.37365447    -0.55500
C1912       C  0.91263284  0.23889922  0.42453435     0.28700
C1913       C  0.87291050  0.24407623  0.38794961     0.28700
C1914       C  0.88863628  0.10343207  0.43099827     0.28700
C1915       C  0.84809834  0.10990033  0.39801107     0.28700
C1916       C  0.94222520  0.19075880  0.45130464     0.37300
C1917       C  0.93636240  0.13613238  0.44810263     0.37300
C1918       C  0.83651850  0.20477090  0.35672624     0.37300
C1919       C  0.82993961  0.15144911  0.35832079     0.37300
C1920       C  0.90867339  0.27228806  0.41827614    -0.20200
C1921       C  0.88369471  0.27551010  0.39588150    -0.20200
C1922       C  0.86607404  0.07887141  0.43834104    -0.20200
C1923       C  0.84037392  0.08291727  0.41727634    -0.20200
C1924       C  0.96875636  0.17654655  0.46709258    -0.21200
C1925       C  0.96536997  0.14226396  0.46454925    -0.21200
C1926       C  0.81616162  0.19622781  0.33077286    -0.21200
C1927       C  0.81230830  0.16235449  0.33157865    -0.21200
C1928       C  0.93644966  0.22586287  0.44714156    -0.16600
C1929       C  0.84746882  0.23724540  0.36445990    -0.16600
C1930       C  0.83136182  0.11857565  0.36964967    -0.16600
C1931       C  0.92078388  0.10445431  0.44263859    -0.16600
H1932       H  0.92308266  0.29244922  0.42797645     0.16300
H1933       H  0.87467962  0.29855386  0.38640784     0.16300
H1934       H  0.86861747  0.05927675  0.45605670     0.16300
H1935       H  0.81910173  0.06703136  0.41527213     0.16300
H1936       H  0.98877262  0.18952275  0.47883810     0.14600
H1937       H  0.98170635  0.12406834  0.47470225     0.14600
H1938       H  0.80555421  0.21260815  0.31288040     0.14600
H1939       H  0.79774968  0.14757766  0.31487095     0.14600
H1940       H  0.88871072  0.19650235  0.40449691     0.27900
H1941       H  0.89029433  0.14087433  0.39432652     0.27900
O1942       O  0.02383250  0.28878626  0.82345750    -0.76800
C1943       C  0.95811023  0.19789827  0.81519394     0.84300
O1944       O  0.02624733  0.20242808  0.74673547    -0.77900
O1945       O  0.91666753  0.23097917  0.72334820    -0.79400
O1946       O  0.94688386  0.33411377  0.76610975    -0.79200
O1947       O  0.03419995  0.32121493  0.78122835    -0.77800
Zn1948     Zn  0.00702231  0.25275637  0.79508326     1.55700
O1949       O  0.91195014  0.29386220  0.77036749    -0.79200
Cd1950     Cd  0.99082090  0.31313956  0.75543736     1.59700
Cd1951     Cd  0.00109780  0.24156296  0.71860627     1.59600
O1952       O  0.00120165  0.32629658  0.70973001    -0.79200
O1953       O  0.98172322  0.26489217  0.75733188    -1.89700
Cd1954     Cd  0.93571429  0.24969251  0.76491967     1.59900
O1955       O  0.02752934  0.28116576  0.69207842    -0.79200
O1956       O  0.93471000  0.21099215  0.79911127    -0.77800
C1957       C  0.04355337  0.21198206  0.77134239     0.84700
C1958       C  0.04337803  0.30732787  0.80755484     0.84400
O1959       O  0.98624668  0.21167412  0.81711746    -0.76800
C1960       C  0.92699984  0.31440252  0.75214823     0.85200
O1961       O  0.04872801  0.24214341  0.77412472    -0.76900
C1962       C  0.02128605  0.31249993  0.69061433     0.85300
C1963       C  0.92853582  0.22278758  0.69582706     0.85700
O1964       O  0.95951711  0.22446690  0.68963508    -0.79300
C1965       C  0.05215699  0.20915485  0.00610933     0.81900
N1966       N  0.02370539  0.19624488  0.01831687    -0.76400
C1967       C  0.00814176  0.21029454  0.04455932     0.84400
N1968       N  0.02217769  0.23741263  0.05935398    -0.76300
C1969       C  0.05055650  0.25131603  0.04757958     0.84500
N1970       N  0.06571115  0.23631535  0.02134566    -0.78000
N1971       N  0.11434745  0.28262580  0.10849497    -0.34900
N1972       N  0.15296844  0.32910100  0.14810597    -0.55500
N1973       N  0.11487402  0.38159898  0.12111924    -0.34900
N1974       N  0.07389623  0.33685285  0.08292358    -0.55500
C1975       C  0.12788430  0.26253404  0.13157374     0.28700
C1976       C  0.08861397  0.26630057  0.09453517     0.28700
C1977       C  0.13014925  0.39594131  0.14675284     0.28700
C1978       C  0.08800019  0.39968335  0.11525529     0.28700
C1979       C  0.17022883  0.30133982  0.15321025     0.37300
C1980       C  0.17264595  0.35487724  0.15596920     0.37300
C1981       C  0.06511272  0.31239815  0.06161459     0.37300
C1982       C  0.06559991  0.36650891  0.06966383     0.37300
C1983       C  0.11040344  0.23321660  0.13221002    -0.20200
C1984       C  0.08591581  0.23561854  0.10905904    -0.20200
C1985       C  0.11242471  0.42276130  0.15806543    -0.20200
C1986       C  0.08549756  0.42498879  0.13825819    -0.20200
C1987       C  0.20116983  0.30952829  0.16486565    -0.21200
C1988       C  0.20281846  0.34358698  0.16621604    -0.21200
C1989       C  0.05055595  0.32676445  0.03449093    -0.21200
C1990       C  0.05104908  0.36087427  0.03949157    -0.21200
C1991       C  0.15680047  0.26915649  0.15048337    -0.16600
C1992       C  0.06868490  0.27759271  0.06789555    -0.16600
C1993       C  0.07006647  0.39772867  0.08609992    -0.16600
C1994       C  0.16170749  0.38783910  0.15686078    -0.16600
H1995       H  0.11485755  0.21210047  0.14759993     0.16300
H1996       H  0.06787310  0.21696515  0.10389234     0.16300
H1997       H  0.11891432  0.43962559  0.17769259     0.16300
H1998       H  0.06715552  0.44415573  0.13939999     0.16300
H1999       H  0.22041808  0.29282064  0.17200342     0.14600
H2000       H  0.22330853  0.35823365  0.17481915     0.14600
H2001       H  0.04058829  0.31403219  0.01334747     0.14600
H2002       H  0.04134890  0.37925825  0.02310772     0.14600
H2003       H  0.12329121  0.30549731  0.10119434     0.27900
H2004       H  0.12448601  0.36321374  0.10597662     0.27900
C2005       C  0.04673567  0.08926713  0.21492597     0.81900
N2006       N  0.06007012  0.06161711  0.20089440    -0.76400
C2007       C  0.04761116  0.04876805  0.17242949     0.84400
N2008       N  0.02255650  0.06474503  0.15737501    -0.76300
C2009       C  0.00946590  0.09252105  0.17094924     0.84500
N2010       N  0.02173607  0.10469195  0.19950648    -0.78000
C2011       C  0.17324711  0.24187352  0.16914201     0.81900
N2012       N  0.20250432  0.22956126  0.15851446    -0.76400
C2013       C  0.21807042  0.20531202  0.17543962     0.84400
N2014       N  0.20357680  0.19287205  0.20302782    -0.76300
C2015       C  0.17444779  0.20497364  0.21433079     0.84500
N2016       N  0.15919576  0.22913966  0.19684697    -0.78000
N2017       N  0.11026797  0.14733609  0.25106358    -0.34900
N2018       N  0.15480358  0.17352117  0.30029515    -0.55500
N2019       N  0.11321384  0.14103625  0.34978901    -0.34900
N2020       N  0.07094615  0.11276780  0.30140454    -0.55500
C2021       C  0.13196477  0.16350587  0.23138977     0.28700
C2022       C  0.09147867  0.12749207  0.23170776     0.28700
C2023       C  0.14227108  0.14510654  0.36476178     0.28700
C2024       C  0.09746842  0.11687855  0.36615840     0.28700
C2025       C  0.16462650  0.19268634  0.27493038     0.37300
C2026       C  0.16730537  0.18657782  0.32834378     0.37300
C2027       C  0.05290989  0.10526003  0.27465748     0.37300
C2028       C  0.05241095  0.10646986  0.32834477     0.37300
C2029       C  0.12618391  0.15428020  0.19913956    -0.20200
C2030       C  0.10121138  0.13150080  0.19931262    -0.20200
C2031       C  0.14541532  0.12265599  0.39013413    -0.20200
C2032       C  0.11688653  0.10490994  0.39115073    -0.20200
C2033       C  0.18427442  0.21798619  0.28697416    -0.21200
C2034       C  0.18577464  0.21424711  0.32082042    -0.21200
C2035       C  0.02237953  0.09383372  0.28468759    -0.21200
C2036       C  0.02193879  0.09499307  0.31874281    -0.21200
C2037       C  0.15628852  0.18704606  0.24127438    -0.16600
C2038       C  0.06449049  0.10725899  0.24167932    -0.16600
C2039       C  0.06493431  0.10769668  0.36080069    -0.16600
C2040       C  0.16300143  0.17215211  0.35988163    -0.16600
H2041       H  0.13811694  0.16351341  0.17746273     0.16300
H2042       H  0.09076703  0.12004242  0.17769532     0.16300
H2043       H  0.16565633  0.12033526  0.40702061     0.16300
H2044       H  0.11082304  0.08586884  0.40866260     0.16300
H2045       H  0.19597064  0.23730037  0.27291003     0.14600
H2046       H  0.19908398  0.22985659  0.33781725     0.14600
H2047       H  0.00253793  0.08554763  0.26911879     0.14600
H2048       H  0.00205195  0.08719256  0.33452680     0.14600
H2049       H  0.10770410  0.15039383  0.27611393     0.27900
H2050       H  0.10324388  0.15627100  0.33193435     0.27900
C2051       C  0.21812871  0.08113014  0.05722277     0.81900
N2052       N  0.20369142  0.09765137  0.03187142    -0.76400
C2053       C  0.17504400  0.08649581  0.01832431     0.84400
N2054       N  0.16051450  0.05900439  0.03113051    -0.76300
C2055       C  0.17436820  0.04244149  0.05670630     0.84500
N2056       N  0.20290544  0.05396672  0.06975769    -0.78000
N2057       N  0.25521797  0.14181152  0.11768105    -0.34900
N2058       N  0.30472839  0.17653772  0.15669943    -0.55500
N2059       N  0.35376882  0.13463793  0.12530622    -0.34900
N2060       N  0.30464130  0.09741867  0.08915669    -0.55500
C2061       C  0.23578403  0.15965910  0.13830284     0.28700
C2062       C  0.23571941  0.11999011  0.10133390     0.28700
C2063       C  0.37063516  0.14912905  0.14988956     0.28700
C2064       C  0.37040327  0.10715544  0.11694167     0.28700
C2065       C  0.27864892  0.19551564  0.16464037     0.37300
C2066       C  0.33209510  0.19336936  0.16546725     0.37300
C2067       C  0.27868247  0.08759672  0.07080806     0.37300
C2068       C  0.33199870  0.08351493  0.07607794     0.37300
C2069       C  0.20371488  0.14906371  0.13461750    -0.20200
C2070       C  0.20360118  0.12431217  0.11157307    -0.20200
C2071       C  0.39785314  0.13042536  0.15766955    -0.20200
C2072       C  0.39763502  0.10380022  0.13693514    -0.20200
C2073       C  0.28955269  0.22446006  0.17939608    -0.21200
C2074       C  0.32346495  0.22325051  0.17957382    -0.21200
C2075       C  0.28955898  0.06632959  0.04634088    -0.21200
C2076       C  0.32329304  0.06392020  0.04954705    -0.21200
C2077       C  0.24534629  0.18644940  0.15916348    -0.16600
C2078       C  0.24540606  0.09701679  0.07648201    -0.16600
C2079       C  0.36416041  0.08756577  0.08915730    -0.16600
C2080       C  0.36428602  0.18065558  0.16261130    -0.16600
H2081       H  0.18229174  0.15873328  0.14662027     0.16300
H2082       H  0.18203815  0.11123160  0.10315181     0.16300
H2083       H  0.41638312  0.13586842  0.17585408     0.16300
H2084       H  0.41602197  0.08467156  0.13598755     0.16300
H2085       H  0.27466605  0.24447195  0.18869671     0.14600
H2086       H  0.33980919  0.24184047  0.18949054     0.14600
H2087       H  0.27474708  0.05388634  0.02807469     0.14600
H2088       H  0.33944003  0.04912891  0.03443173     0.14600
H2089       H  0.27993914  0.14527575  0.11378332     0.27900
H2090       H  0.33429862  0.14486315  0.11272038     0.27900
N2091       N  0.11516716  0.14593082  0.97643161    -0.34900
N2092       N  0.15787705  0.11177992  0.93026178    -0.55500
N2093       N  0.12002506  0.14126826  0.87600616    -0.34900
N2094       N  0.07936240  0.17791851  0.92110265    -0.55500
C2095       C  0.13591745  0.13071878  0.99778926     0.28700
C2096       C  0.09725564  0.16867858  0.99337799     0.28700
C2097       C  0.14795449  0.13166770  0.86104509     0.28700
C2098       C  0.10573206  0.16325234  0.85585050     0.28700
C2099       C  0.16702298  0.09544920  0.95765377     0.37300
C2100       C  0.17083636  0.09545988  0.90420919     0.37300
C2101       C  0.06204116  0.19045794  0.94682759     0.37300
C2102       C  0.06263164  0.18426848  0.89286764     0.37300
C2103       C  0.13070836  0.14373195  0.02884545    -0.20200
C2104       C  0.10671565  0.16750337  0.02611207    -0.20200
C2105       C  0.15174551  0.14815389  0.83156170    -0.20200
C2106       C  0.12504621  0.16807254  0.82824980    -0.20200
C2107       C  0.18653205  0.06885835  0.94886092    -0.21200
C2108       C  0.18884296  0.06881604  0.91504871    -0.21200
C2109       C  0.03411480  0.20549211  0.93458843    -0.21200
C2110       C  0.03433491  0.20129213  0.90069016    -0.21200
C2111       C  0.15884884  0.10483896  0.99042644    -0.16600
C2112       C  0.07150373  0.18940312  0.98092109    -0.16600
C2113       C  0.07457951  0.17708330  0.86039907    -0.16600
C2114       C  0.16787938  0.10552878  0.87106809    -0.16600
H2115       H  0.14296289  0.13687553  0.05127597     0.16300
H2116       H  0.09711298  0.18199817  0.04628424     0.16300
H2117       H  0.17137285  0.14543029  0.81386706     0.16300
H2118       H  0.12022003  0.18401062  0.80764386     0.16300
H2119       H  0.19794768  0.05132396  0.96509046     0.14600
H2120       H  0.20249025  0.05142303  0.90018829     0.14600
H2121       H  0.01545453  0.21821070  0.94861440     0.14600
H2122       H  0.01627759  0.21054397  0.88374059     0.14600
H2123       H  0.11245677  0.14039559  0.95174729     0.27900
H2124       H  0.10980300  0.13102666  0.89707594     0.27900
N2125       N  0.10971571  0.00906905  0.11504884    -0.34900
N2126       N  0.14759565  0.95629840  0.08228442    -0.55500
N2127       N  0.10596803  0.90902254  0.11508210    -0.34900
N2128       N  0.06646507  0.96074362  0.14573833    -0.55500
C2129       C  0.12740958  0.02713729  0.09320846     0.28700
C2130       C  0.08725332  0.02932884  0.12935502     0.28700
C2131       C  0.12143391  0.89037436  0.09241643     0.28700
C2132       C  0.07820794  0.89276298  0.12293222     0.28700
C2133       C  0.16596372  0.98272295  0.07347586     0.37300
C2134       C  0.16568666  0.92867082  0.07701163     0.37300
C2135       C  0.05693541  0.98764139  0.16314861     0.37300
C2136       C  0.05383357  0.93379822  0.16083570     0.37300
C2137       C  0.11596155  0.05937496  0.09392152    -0.20200
C2138       C  0.09097797  0.06071669  0.11658669    -0.20200
C2139       C  0.10303831  0.86241750  0.08528974    -0.20200
C2140       C  0.07567356  0.86392843  0.10462991    -0.20200
C2141       C  0.19601887  0.97167400  0.06184464    -0.21200
C2142       C  0.19597108  0.93752144  0.06445459    -0.21200
C2143       C  0.03734627  0.97769865  0.18917285    -0.21200
C2144       C  0.03552259  0.94359788  0.18779234    -0.21200
C2145       C  0.15517715  0.01628628  0.07451155    -0.16600
C2146       C  0.06465916  0.02091437  0.15485967    -0.16600
C2147       C  0.05769274  0.90088160  0.14928251    -0.16600
C2148       C  0.15338114  0.89596540  0.08117803    -0.16600
H2149       H  0.12516139  0.08029295  0.08034880     0.16300
H2150       H  0.07751266  0.08261842  0.12322660     0.16300
H2151       H  0.10914536  0.84255137  0.06854509     0.16300
H2152       H  0.05659498  0.84537290  0.10594670     0.16300
H2153       H  0.21592788  0.98661567  0.05248598     0.14600
H2154       H  0.21553302  0.92111911  0.05712008     0.14600
H2155       H  0.02559648  0.99335784  0.20724183     0.14600
H2156       H  0.02204181  0.92788265  0.20446090     0.14600
H2157       H  0.11391900  0.98475263  0.12116995     0.27900
H2158       H  0.11554933  0.92960555  0.12706253     0.27900
N2159       N  0.97308433  0.15152224  0.10887196    -0.34900
N2160       N  0.92478227  0.12343829  0.15469884    -0.55500
N2161       N  0.87514548  0.15006922  0.11381081    -0.34900
N2162       N  0.92216071  0.18033768  0.06875848    -0.55500
C2163       C  0.99303704  0.13389541  0.12878333     0.28700
C2164       C  0.99213559  0.16970534  0.08820556     0.28700
C2165       C  0.85951600  0.14766905  0.14285670     0.28700
C2166       C  0.85763818  0.17119666  0.09586570     0.28700
C2167       C  0.95075868  0.10579259  0.16446834     0.37300
C2168       C  0.89819642  0.11125416  0.17038662     0.37300
C2169       C  0.94810321  0.19197122  0.05147503     0.37300
C2170       C  0.89470018  0.18349714  0.05037444     0.37300
C2171       C  0.02525852  0.14096231  0.12059746    -0.20200
C2172       C  0.02468093  0.16306450  0.09509955    -0.20200
C2173       C  0.83230996  0.16797389  0.14357187    -0.20200
C2174       C  0.83110174  0.18291743  0.11370015    -0.20200
C2175       C  0.94065922  0.08246757  0.18728960    -0.21200
C2176       C  0.90721654  0.08594821  0.19099705    -0.21200
C2177       C  0.93682828  0.20363856  0.02163362    -0.21200
C2178       C  0.90318773  0.19761847  0.02065638    -0.21200
C2179       C  0.98341601  0.11102936  0.15372961    -0.16600
C2180       C  0.98155997  0.19097699  0.06224870    -0.16600
C2181       C  0.86253321  0.17638077  0.06253304    -0.16600
C2182       C  0.86646310  0.12412187  0.16652312    -0.16600
H2183       H  0.04708315  0.13102568  0.13162919     0.16300
H2184       H  0.04596384  0.17182572  0.08198293     0.16300
H2185       H  0.81454518  0.17069890  0.16314517     0.16300
H2186       H  0.81235573  0.19977407  0.10564238     0.16300
H2187       H  0.95578202  0.06479184  0.19993804     0.14600
H2188       H  0.89147761  0.07171736  0.20700484     0.14600
H2189       H  0.95138021  0.21453309  0.00226751     0.14600
H2190       H  0.88698674  0.20391945  0.00083110     0.14600
H2191       H  0.94771150  0.15073636  0.10935881     0.27900
H2192       H  0.89431058  0.13547912  0.10505970     0.27900
C2193       C  0.05748328  0.18568396  0.82949218    -0.11600
C2194       C  0.05007939  0.19274955  0.80110898    -0.13100
C2195       C  0.92825450  0.30613246  0.68666815    -0.11600
C2196       C  0.93056161  0.30775445  0.71668641    -0.13100
C2197       C  0.04797170  0.36109581  0.65693471    -0.11600
C2198       C  0.03775848  0.33556488  0.66901172    -0.13100
C2199       C  0.88026166  0.20266121  0.65715069    -0.11600
C2200       C  0.90459303  0.21170191  0.67193697    -0.13100
C2201       C  0.03758225  0.08448309  0.41556301    -0.11600
C2202       C  0.04698816  0.09618868  0.38973161    -0.13100
C2203       C  0.90281701  0.07610819  0.53083490    -0.11600
C2204       C  0.87695766  0.08919814  0.53706349    -0.13100
C2205       C  0.04693466  0.96154895  0.56909024    -0.11600
C2206       C  0.04866243  0.93344768  0.57995513    -0.13100
C2207       C  0.93751692  0.04032641  0.44375444    -0.11600
C2208       C  0.93529831  0.07080811  0.44633650    -0.13100
C2209       C  0.79723301  0.42213060  0.69635060    -0.11600
C2210       C  0.80925643  0.40670016  0.67369345    -0.13100
C2211       C  0.67196206  0.44349175  0.66741779    -0.11600
C2212       C  0.66885558  0.41659684  0.65510321    -0.13100
C2213       C  0.84602887  0.56950037  0.66088417    -0.11600
C2214       C  0.82038224  0.56462990  0.67439129    -0.13100
C2215       C  0.68143712  0.58885639  0.82513655    -0.11600
C2216       C  0.68356375  0.58249241  0.79605011    -0.13100
C2217       C  0.07767598  0.30869271  0.81634905    -0.11600
C2218       C  0.10641572  0.31180151  0.82332260    -0.13100
C2219       C  0.63813920  0.43984950  0.84132169    -0.11600
C2220       C  0.66053251  0.45248690  0.82654118    -0.13100
C2221       C  0.83174545  0.17686981  0.04419567    -0.11600
C2222       C  0.80235033  0.18037103  0.03957227    -0.13100
C2223       C  0.67731612  0.20268793  0.87655226    -0.11600
C2224       C  0.69293743  0.21304108  0.89960475    -0.13100
C2225       C  0.68005938  0.32766927  0.04083837    -0.11600
C2226       C  0.67047735  0.35626517  0.04268573    -0.13100
C2227       C  0.68096490  0.33043327  0.96409199    -0.11600
C2228       C  0.65183099  0.33491337  0.96090607    -0.13100
C2229       C  0.83609454  0.31809130  0.12864990    -0.11600
C2230       C  0.82696047  0.31447641  0.10052298    -0.13100
C2231       C  0.81104752  0.10149818  0.19083356    -0.11600
C2232       C  0.83810313  0.11095112  0.18333606    -0.13100
C2233       C  0.64832790  0.06078866  0.30662558    -0.11600
C2234       C  0.63522313  0.06560064  0.33287864    -0.13100
C2235       C  0.70022615  0.91066864  0.14569946    -0.11600
C2236       C  0.70686096  0.93714828  0.15754711    -0.13100
C2237       C  0.80789293  0.06799844  0.33523496    -0.11600
C2238       C  0.81790519  0.09127830  0.35090203    -0.13100
C2239       C  0.08745126  0.92644225  0.44446189    -0.11600
C2240       C  0.11573838  0.91713327  0.44138014    -0.13100
C2241       C  0.66186708  0.91323741  0.32293755    -0.11600
C2242       C  0.68406405  0.92841639  0.31043525    -0.13100
C2243       C  0.39374258  0.07359648  0.07416444    -0.11600
C2244       C  0.42237085  0.06747821  0.06803758    -0.13100
C2245       C  0.55341036  0.09110080  0.88796114    -0.11600
C2246       C  0.54700929  0.07931706  0.91480217    -0.13100
C2247       C  0.57248044  0.95711434  0.05503822    -0.11600
C2248       C  0.57499628  0.92667819  0.05450901    -0.13100
C2249       C  0.45699685  0.92714540  0.08994954    -0.11600
C2250       C  0.44562297  0.91861175  0.11616369    -0.13100
C2251       C  0.44914456  0.04712965  0.94604249    -0.11600
C2252       C  0.44425552  0.07561769  0.93783364    -0.13100
C2253       C  0.03494391  0.84701721  0.17874036    -0.11600
C2254       C  0.04301528  0.87269870  0.16586169    -0.13100
C2255       C  0.93796451  0.64298486  0.34524693    -0.11600
C2256       C  0.93952852  0.67053591  0.33354985    -0.13100
C2257       C  0.92388515  0.70683181  0.16776306    -0.11600
C2258       C  0.89890828  0.69910816  0.15356474    -0.13100
C2259       C  0.11374007  0.80210801  0.33309375    -0.11600
C2260       C  0.08528349  0.79926534  0.32384124    -0.13100
C2261       C  0.05818734  0.70426652  0.30555202    -0.11600
C2262       C  0.06628594  0.70358251  0.33446172    -0.13100
C2263       C  0.83453799  0.66394255  0.47962676    -0.11600
C2264       C  0.85024005  0.63921879  0.47547610    -0.13100
C2265       C  0.70610566  0.79917396  0.44211810    -0.11600
C2266       C  0.67788730  0.80047838  0.43229261    -0.13100
C2267       C  0.66910998  0.83314976  0.55907208    -0.11600
C2268       C  0.65966420  0.86159542  0.56139595    -0.13100
C2269       C  0.68597128  0.70219326  0.41401813    -0.11600
C2270       C  0.67781774  0.69720931  0.38565041    -0.13100
C2271       C  0.79145967  0.68756073  0.56701590    -0.11600
C2272       C  0.82169754  0.68536300  0.56552312    -0.13100
C2273       C  0.19253777  0.07236391  0.82035727    -0.11600
C2274       C  0.18356577  0.08727730  0.84455492    -0.13100
C2275       C  0.15601063  0.91859961  0.68889330    -0.11600
C2276       C  0.17114844  0.94407612  0.69238196    -0.13100
C2277       C  0.33650995  0.07370682  0.65724486    -0.11600
C2278       C  0.31312976  0.06309572  0.67215998    -0.13100
C2279       C  0.33961849  0.93154662  0.68597154    -0.11600
C2280       C  0.35404492  0.92848415  0.66035273    -0.13100
C2281       C  0.31705730  0.08206669  0.84482538    -0.11600
C2282       C  0.30664634  0.05542010  0.83629105    -0.13100
C2283       C  0.06287384  0.46097496  0.07081556    -0.11600
C2284       C  0.06177494  0.43067764  0.07310613    -0.13100
C2285       C  0.07208432  0.56358281  0.88666923    -0.11600
C2286       C  0.06924813  0.55233709  0.91421019    -0.13100
C2287       C  0.92581908  0.57510532  0.04558562    -0.11600
C2288       C  0.89783478  0.58482704  0.04586970    -0.13100
C2289       C  0.10415904  0.41163638  0.94499312    -0.11600
C2290       C  0.07808731  0.41845244  0.95736778    -0.13100
C2291       C  0.96648409  0.40791676  0.13262491    -0.11600
C2292       C  0.97386585  0.42063135  0.10665138    -0.13100
C2293       C  0.17883945  0.83649760  0.07146713    -0.11600
C2294       C  0.17188009  0.86567761  0.07440298    -0.13100
C2295       C  0.15719584  0.70072026  0.89463561    -0.11600
C2296       C  0.16502117  0.70644320  0.92288034    -0.13100
C2297       C  0.30820108  0.66626475  0.96482389    -0.11600
C2298       C  0.31920008  0.63865737  0.96137455    -0.13100
C2299       C  0.34351729  0.68043110  0.06259251    -0.11600
C2300       C  0.31388541  0.68013882  0.05805548    -0.13100
C2301       C  0.31607721  0.80334136  0.08940874    -0.11600
C2302       C  0.32664188  0.81212746  0.11585267    -0.13100
C2303       C  0.41059825  0.71328948  0.67703360    -0.11600
C2304       C  0.38390411  0.70807324  0.66513193    -0.13100
C2305       C  0.44153473  0.81460461  0.71036084    -0.11600
C2306       C  0.44442780  0.81499543  0.68001146    -0.13100
C2307       C  0.42943729  0.67193509  0.83372660    -0.11600
C2308       C  0.42464196  0.64404373  0.84350703    -0.13100
C2309       C  0.56341999  0.70373535  0.79861196    -0.11600
C2310       C  0.57561232  0.70135097  0.82581170    -0.13100
C2311       C  0.53226711  0.84396362  0.67952559    -0.11600
C2312       C  0.53923467  0.86898036  0.66499667    -0.13100
C2313       C  0.17654846  0.18534011  0.39043487    -0.11600
C2314       C  0.18176038  0.18911944  0.41965943    -0.13100
C2315       C  0.32030422  0.19047216  0.56083046    -0.11600
C2316       C  0.29015918  0.19116760  0.56375371    -0.13100
C2317       C  0.34535438  0.29035715  0.61810710    -0.11600
C2318       C  0.33256136  0.28316725  0.59227099    -0.13100
C2319       C  0.20269694  0.30463962  0.45222519    -0.11600
C2320       C  0.17374584  0.31264059  0.45210306    -0.13100
C2321       C  0.33100883  0.16205944  0.46217744    -0.11600
C2322       C  0.34354111  0.13625174  0.45371660    -0.13100
C2323       C  0.17191524  0.36555199  0.55411585    -0.11600
C2324       C  0.18191306  0.33773330  0.54896048    -0.13100
C2325       C  0.18189779  0.41509169  0.16835136    -0.11600
C2326       C  0.19361521  0.44095191  0.17767876    -0.13100
C2327       C  0.36130620  0.59558407  0.19358926    -0.11600
C2328       C  0.33695091  0.58408342  0.20591994    -0.13100
C2329       C  0.33323276  0.55587803  0.32040521    -0.11600
C2330       C  0.34748861  0.58192450  0.32442968    -0.13100
C2331       C  0.15994274  0.43333257  0.35572973    -0.11600
C2332       C  0.18318740  0.44432396  0.34077190    -0.13100
C2333       C  0.18439354  0.59026226  0.32024121    -0.11600
C2334       C  0.17652556  0.60111476  0.34665771    -0.13100
C2335       C  0.30725565  0.40772764  0.17038218    -0.11600
C2336       C  0.30214975  0.42244297  0.19586877    -0.13100
C2337       C  0.94718890  0.13846542  0.84165479    -0.11600
C2338       C  0.95307852  0.16553271  0.82997637    -0.13100
C2339       C  0.83268661  0.14165934  0.95556039    -0.11600
C2340       C  0.82453596  0.17009274  0.96094197    -0.13100
C2341       C  0.61405610  0.90362476  0.95791115    -0.11600
C2342       C  0.58879193  0.91775839  0.96458463    -0.13100
C2343       C  0.58413118  0.79253116  0.83275550    -0.11600
C2344       C  0.61245958  0.79545354  0.84189608    -0.13100
C2345       C  0.81446965  0.58498094  0.85089896    -0.11600
C2346       C  0.79987808  0.56360885  0.83606577    -0.13100
C2347       C  0.92676393  0.57339369  0.96349264    -0.11600
C2348       C  0.93598322  0.54493658  0.96715468    -0.13100
C2349       C  0.94688530  0.92238061  0.61957810    -0.11600
C2350       C  0.95371041  0.93081002  0.59161068    -0.13100
C2351       C  0.82825270  0.78998287  0.59262723    -0.11600
C2352       C  0.84072899  0.79765645  0.61846892    -0.13100
C2353       C  0.82643361  0.94767188  0.19165235    -0.11600
C2354       C  0.83777521  0.93447461  0.16745662    -0.13100
C2355       C  0.93602223  0.81165053  0.21193882    -0.11600
C2356       C  0.93784435  0.81435941  0.18181698    -0.13100
C2357       C  0.14789275  0.89246681  0.80495599    -0.11600
C2358       C  0.17289699  0.90401206  0.79384531    -0.13100
C2359       C  0.16777401  0.80037891  0.92936636    -0.11600
C2360       C  0.19609035  0.80066766  0.93900852    -0.13100
C2361       C  0.42089644  0.20824627  0.17856408    -0.11600
C2362       C  0.39320193  0.19930173  0.17244860    -0.13100
C2363       C  0.58778058  0.29655185  0.33680842    -0.11600
C2364       C  0.61355634  0.30679399  0.34780386    -0.13100
C2365       C  0.56021846  0.19488235  0.29084155    -0.11600
C2366       C  0.55647876  0.19329637  0.32083416    -0.13100
C2367       C  0.57055725  0.33618229  0.17750839    -0.11600
C2368       C  0.57534631  0.36350677  0.16679065    -0.13100
C2369       C  0.42732435  0.30726720  0.18183784    -0.11600
C2370       C  0.43906337  0.30524223  0.20941882    -0.13100
C2371       C  0.46597941  0.15986727  0.32579049    -0.11600
C2372       C  0.45784689  0.13406208  0.33842089    -0.13100
C2373       C  0.58143604  0.43152322  0.46380378    -0.11600
C2374       C  0.60988586  0.42406534  0.45815003    -0.13100
C2375       C  0.41019682  0.59339126  0.53728677    -0.11600
C2376       C  0.38350349  0.60406664  0.54531233    -0.13100
C2377       C  0.44532615  0.57057253  0.43907814    -0.11600
C2378       C  0.44204309  0.54038363  0.44128991    -0.13100
C2379       C  0.42521408  0.42952907  0.61934022    -0.11600
C2380       C  0.42938860  0.44014981  0.59162872    -0.13100
C2381       C  0.53849301  0.58115263  0.40806513    -0.11600
C2382       C  0.55045383  0.59336923  0.38349936    -0.13100
C2383       C  0.55484396  0.46056181  0.55144310    -0.11600
C2384       C  0.56296364  0.43143007  0.55258620    -0.13100
loop_ 
_geom_bond_atom_site_label_1 
_geom_bond_atom_site_label_2 
_geom_bond_distance 
_geom_bond_site_symmetry_2 
_ccdc_geom_bond_type 
O1           C17   1.278       .  A
O1           Zn7   2.058       .  S
C2           O18   1.277       .  A
C2           O15   1.274       .  A
C2         C2378   1.486       .  S
O3           C16   1.289       .  A
O3          Cd10   2.181       .  S
O4           C22   1.254       .  A
O4          Cd13   1.951       .  S
O5           C19   1.274       .  A
O5           Cd9   2.063       .  S
O6           C17   1.276       .  A
O6           Cd9   2.108       .  S
Zn7          O18   1.993       .  S
Zn7          O20   1.955       .  S
Zn7          O12   1.955       .  S
O8           C19   1.277       .  A
O8          Cd13   2.129       .  S
Cd9          O11   1.998       .  S
Cd9          O12   1.995       .  S
Cd10         O14   2.202       .  S
Cd10         O23   2.217       .  S
Cd10         O12   2.023       .  S
O11          C21   1.245       .  A
O12         Cd13   1.988       .  S
Cd13         O15   2.032       .  S
O14          C21   1.284       .  A
C16          O20   1.262       .  A
C16        C2381   1.455       .  S
C17        C2373   1.462       .  S
C19        C2380   1.463       .  S
C21        C2383   1.464       .  S
C22          O23   1.299       .  A
C22        C2375   1.441       .  S
O24          C40   1.278       .  A
O24         Zn30   2.042       .  S
C25          O41   1.277       .  A
C25          O38   1.269       .  A
C25        C2365   1.484       .  S
O26          C39   1.287       .  A
O26         Cd33   2.167       .  S
O27          C45   1.257       .  A
O27         Cd36   1.959       .  S
O28          C42   1.270       .  A
O28         Cd32   2.036       .  S
O29          C40   1.272       .  A
O29         Cd32   2.075       .  S
Zn30         O41   1.988       .  S
Zn30         O43   1.925       .  S
Zn30         O35   1.938       .  S
O31          C42   1.273       .  A
O31         Cd36   2.087       .  S
Cd32         O34   1.999       .  S
Cd32         O35   1.978       .  S
Cd33         O37   2.194       .  S
Cd33         O46   2.198       .  S
Cd33         O35   2.026       .  S
O34          C44   1.250       .  A
O35         Cd36   1.994       .  S
Cd36         O38   2.033       .  S
O37          C44   1.284       .  A
C39          O43   1.258       .  A
C39        C2371   1.443       .  S
C40        C2361   1.445       .  S
C42        C2367   1.438       .  S
C44        C2370   1.464       .  S
C45          O46   1.296       .  A
C45        C2363   1.441       .  S
C47          N48   1.366       .  A
C47          N52   1.369       .  A
C47         C193   1.513       .  S
N48          C49   1.366       .  A
C49          N50   1.367       .  A
C49         C227   1.511       .  S
N50          C51   1.370       .  A
C51          N52   1.371       .  A
C51         C159   1.514       .  S
C53          N54   1.369       .  A
C53          N58   1.367       .  A
C53         C228   1.509       .  S
N54          C55   1.370       .  A
C55          N56   1.366       .  A
C55         C261   1.508       .  S
N56          C57   1.364       .  A
C57          N58   1.365       .  A
C57         C126   1.507   1_556  S
C59          N60   1.372   1_554  A
C59          N64   1.375   1_554  A
C59         C125   1.531       .  S
N60          C61   1.373       .  A
C61          N62   1.368       .  A
C61         C194   1.520       .  S
N62          C63   1.369       .  A
C63          N64   1.374       .  A
C63          C91   1.522   1_655  S
C65          N66   1.366       .  A
C65          N70   1.360       .  A
C65         C160   1.494       .  S
N66          C67   1.366       .  A
C67          N68   1.370       .  A
C67         C262   1.506       .  S
N68          C69   1.366       .  A
C69          N70   1.359       .  A
C69          C92   1.498   1_655  S
N71          C76   1.364       .  A
N71          C75   1.363       .  A
N71         H103   1.038       .  S
N72          C79   1.361       .  A
N72          C80   1.363       .  A
N73          C78   1.348       .  A
N73          C77   1.344       .  A
N73         H104   1.040       .  S
N74          C81   1.351       .  A
N74          C82   1.356       .  A
C75          C83   1.389   1_455  A
C75          C91   1.437       .  A
C76          C92   1.431       .  A
C76          C84   1.385   1_455  A
C77          C85   1.387       .  A
C77          C94   1.395       .  A
C78          C93   1.401       .  A
C78          C86   1.388       .  A
C79          C91   1.439       .  A
C79          C87   1.389       .  A
C80          C94   1.435       .  A
C80          C88   1.386       .  A
C81          C89   1.388       .  A
C81          C92   1.417       .  A
C82          C90   1.384       .  A
C82          C93   1.415       .  A
C83          C84   1.380       .  A
C83          H95   1.078       .  S
C84          H96   1.083       .  S
C85          C86   1.371       .  A
C85          H97   1.083       .  S
C86          H98   1.083       .  S
C87          C88   1.393       .  A
C87          H99   1.082       .  S
C88         H100   1.082       .  S
C89          C90   1.379       .  A
C89         H101   1.082       .  S
C90         H102   1.082       .  S
C93        C2357   1.453       .  S
C94        C2359   1.468       .  S
N105        C110   1.368       .  A
N105        C109   1.367       .  A
N105        H137   1.030       .  S
N106        C113   1.362       .  A
N106        C114   1.367       .  A
N107        C112   1.350       .  A
N107        C111   1.348       .  A
N107        H138   1.039       .  S
N108        C115   1.352       .  A
N108        C116   1.356       .  A
C109        C117   1.389   1_554  A
C109        C125   1.444       .  A
C110        C126   1.439       .  A
C110        C118   1.385   1_554  A
C111        C119   1.388       .  A
C111        C128   1.401       .  A
C112        C127   1.400       .  A
C112        C120   1.386       .  A
C113        C125   1.446       .  A
C113        C121   1.390       .  A
C114        C128   1.441       .  A
C114        C122   1.385       .  A
C115        C123   1.390       .  A
C115        C126   1.423       .  A
C116        C124   1.384       .  A
C116        C127   1.416       .  A
C117        C118   1.381       .  A
C117        H129   1.079       .  S
C118        H130   1.080       .  S
C119        C120   1.369       .  A
C119        H131   1.083       .  S
C120        H132   1.083       .  S
C121        C122   1.395       .  A
C121        H133   1.082       .  S
C122        H134   1.082       .  S
C123        C124   1.381       .  A
C123        H135   1.082       .  S
C124        H136   1.083       .  S
C127       C2354   1.456       .  S
C128       C2356   1.487       .  S
N139        C144   1.357       .  A
N139        C143   1.363       .  A
N139        H171   1.037       .  S
N140        C147   1.359       .  A
N140        C148   1.356       .  A
N141        C146   1.354       .  A
N141        C145   1.349       .  A
N141        H172   1.040       .  S
N142        C149   1.355       .  A
N142        C150   1.361       .  A
C143        C151   1.387       .  A
C143        C159   1.428       .  A
C144        C160   1.427       .  A
C144        C152   1.388       .  A
C145        C153   1.390       .  A
C145        C162   1.405       .  A
C146        C161   1.405       .  A
C146        C154   1.386       .  A
C147        C159   1.429       .  A
C147        C155   1.387       .  A
C148        C162   1.425       .  A
C148        C156   1.387       .  A
C149        C157   1.389       .  A
C149        C160   1.428       .  A
C150        C158   1.384       .  A
C150        C161   1.425       .  A
C151        C152   1.374       .  A
C151        H163   1.081       .  S
C152        H164   1.081       .  S
C153        C154   1.361       .  A
C153        H165   1.082       .  S
C154        H166   1.082       .  S
C155        C156   1.387       .  A
C155        H167   1.082       .  S
C156        H168   1.082       .  S
C157        C158   1.386       .  A
C157        H169   1.082       .  S
C158        H170   1.082       .  S
C161       C2349   1.472       .  S
C162       C2352   1.453       .  S
N173        C178   1.364       .  A
N173        C177   1.367       .  A
N173        H205   1.036       .  S
N174        C181   1.355       .  A
N174        C182   1.356       .  A
N175        C180   1.348       .  A
N175        C179   1.349       .  A
N175        H206   1.040       .  S
N176        C183   1.360       .  A
N176        C184   1.364       .  A
C177        C185   1.384       .  A
C177        C193   1.437       .  A
C178        C194   1.438       .  A
C178        C186   1.387       .  A
C179        C187   1.387       .  A
C179        C196   1.402       .  A
C180        C195   1.400       .  A
C180        C188   1.387       .  A
C181        C193   1.422       .  A
C181        C189   1.387       .  A
C182        C196   1.419       .  A
C182        C190   1.386       .  A
C183        C191   1.389       .  A
C183        C194   1.438       .  A
C184        C192   1.386       .  A
C184        C195   1.435       .  A
C185        C186   1.378       .  A
C185        H197   1.077       .  S
C186        H198   1.079       .  S
C187        C188   1.370       .  A
C187        H199   1.082       .  S
C188        H200   1.082       .  S
C189        C190   1.381       .  A
C189        H201   1.082       .  S
C190        H202   1.082       .  S
C191        C192   1.392       .  A
C191        H203   1.082       .  S
C192        H204   1.081       .  S
C195       C2347   1.473       .  S
C196       C2345   1.456       .  S
N207        C212   1.365       .  A
N207        C211   1.361       .  A
N207        H239   1.035       .  S
N208        C215   1.357       .  A
N208        C216   1.361       .  A
N209        C214   1.348       .  A
N209        C213   1.348       .  A
N209        H240   1.040       .  S
N210        C217   1.355       .  A
N210        C218   1.356       .  A
C211        C219   1.387       .  A
C211        C227   1.436       .  A
C212        C228   1.433       .  A
C212        C220   1.385       .  A
C213        C221   1.388       .  A
C213        C230   1.402       .  A
C214        C229   1.401       .  A
C214        C222   1.387       .  A
C215        C227   1.434       .  A
C215        C223   1.389       .  A
C216        C230   1.429       .  A
C216        C224   1.385       .  A
C217        C225   1.388       .  A
C217        C228   1.425       .  A
C218        C226   1.385       .  A
C218        C229   1.421       .  A
C219        C220   1.375       .  A
C219        H231   1.076       .  S
C220        H232   1.082       .  S
C221        C222   1.371       .  A
C221        H233   1.083       .  S
C222        H234   1.083       .  S
C223        C224   1.390       .  A
C223        H235   1.082       .  S
C224        H236   1.082       .  S
C225        C226   1.384       .  A
C225        H237   1.082       .  S
C226        H238   1.082       .  S
C229       C2341   1.456       .  S
C230       C2344   1.468       .  S
N241        C246   1.361   1_545  A
N241        C245   1.360   1_545  A
N241        H273   1.031       .  S
N242        C249   1.358       .  A
N242        C250   1.359       .  A
N243        C248   1.353       .  A
N243        C247   1.352       .  A
N243        H274   1.039       .  S
N244        C251   1.357       .  A
N244        C252   1.359       .  A
C245        C253   1.389       .  A
C245        C261   1.432       .  A
C246        C262   1.430       .  A
C246        C254   1.388       .  A
C247        C255   1.390       .  A
C247        C264   1.410       .  A
C248        C263   1.408       .  A
C248        C256   1.387       .  A
C249        C261   1.434   1_545  A
C249        C257   1.388       .  A
C250        C264   1.429       .  A
C250        C258   1.386       .  A
C251        C259   1.388       .  A
C251        C262   1.431   1_545  A
C252        C260   1.385       .  A
C252        C263   1.427       .  A
C253        C254   1.371       .  A
C253        H265   1.080       .  S
C254        H266   1.082       .  S
C255        C256   1.369       .  A
C255        H267   1.082       .  S
C256        H268   1.083       .  S
C257        C258   1.389       .  A
C257        H269   1.082       .  S
C258        H270   1.082       .  S
C259        C260   1.386       .  A
C259        H271   1.082       .  S
C260        H272   1.082       .  S
C263       C2337   1.471       .  S
C264       C2339   1.467       .  S
O275        C291   1.275       .  A
O275       Zn281   2.029       .  S
C276        O292   1.268       .  A
C276        O289   1.277       .  A
C276       C2333   1.426       .  S
O277        C290   1.281       .  A
O277       Cd284   2.153       .  S
O278        C296   1.264       .  A
O278       Cd287   2.013       .  S
O279        C293   1.277       .  A
O279       Cd283   2.076       .  S
O280        C291   1.277       .  A
O280       Cd283   2.060       .  S
Zn281       O292   1.954       .  S
Zn281       O294   1.943       .  S
Zn281       O286   1.874       .  S
O282        C293   1.278       .  A
O282       Cd287   2.069       .  S
Cd283       O285   2.018       .  S
Cd283       O286   1.951       .  S
Cd284       O288   2.135       .  S
Cd284       O297   2.146       .  S
Cd284       O286   2.009       .  S
O285        C295   1.261       .  A
O286       Cd287   1.934       .  S
Cd287       O289   2.071       .  S
O288        C295   1.280       .  A
C290        O294   1.253       .  A
C290       C2329   1.444       .  S
C291       C2328   1.435       .  S
C293       C2326   1.440       .  S
C295       C2336   1.444       .  S
C296        O297   1.287       .  A
C296       C2332   1.441       .  S
O298        C314   1.275       .  A
O298       Zn304   1.996       .  S
C299        O315   1.276       .  A
C299        O312   1.272       .  A
C299       C2314   1.456       .  S
O300        C313   1.294       .  A
O300       Cd307   2.182       .  S
O301        C319   1.242       .  A
O301       Cd310   2.011       .  S
O302        C316   1.278       .  A
O302       Cd306   2.096       .  S
O303        C314   1.276       .  A
O303       Cd306   2.042       .  S
Zn304       O315   2.068       .  S
Zn304       O317   1.901       .  S
Zn304       O309   1.927       .  S
O305        C316   1.276       .  A
O305       Cd310   2.112       .  S
Cd306       O308   1.975       .  S
Cd306       O309   1.992       .  S
Cd307       O311   2.160       .  S
Cd307       O320   2.198       .  S
Cd307       O309   2.022       .  S
O308        C318   1.258       .  A
O309       Cd310   1.967       .  S
Cd310       O312   2.037       .  S
O311        C318   1.287       .  A
C313        O317   1.258       .  A
C313       C2321   1.440       .  S
C314       C2316   1.489       .  S
C316       C2324   1.455       .  S
C318       C2318   1.436       .  S
C319        O320   1.282       .  A
C319       C2319   1.461       .  S
O321        C337   1.274       .  A
O321       Zn327   2.041       .  S
C322        O338   1.271       .  A
C322        O335   1.277       .  A
C322       C2307   1.450       .  S
O323        C336   1.281       .  A
O323       Cd330   2.170       .  S
O324        C342   1.253       .  A
O324       Cd333   1.943       .  S
O325        C339   1.281       .  A
O325       Cd329   2.065       .  S
O326        C337   1.282       .  A
O326       Cd329   2.115       .  S
Zn327       O338   1.997       .  S
Zn327       O340   1.944       .  S
Zn327       O332   1.922       .  S
O328        C339   1.274       .  A
O328       Cd333   2.047       .  S
Cd329       O331   1.993       .  S
Cd329       O332   1.994       .  S
Cd330       O334   2.142       .  S
Cd330       O343   2.171       .  S
Cd330       O332   2.026       .  S
O331        C341   1.258       .  A
O332       Cd333   1.985       .  S
Cd333       O335   2.104       .  S
O334        C341   1.282       .  A
C336        O340   1.252       .  A
C336       C2309   1.455       .  S
C337       C2343   1.460       .  S
C339       C2305   1.498       .  S
C341       C2311   1.438       .  S
C342        O343   1.291       .  A
C342       C2303   1.432       .  S
O344        C360   1.276       .  A
O344       Zn350   2.049   1_556  S
C345        O361   1.273       .  A
C345        O358   1.281       .  A
C345       C2293   1.462       .  S
O346        C359   1.280       .  A
O346       Cd353   2.170       .  S
O347        C365   1.255       .  A
O347       Cd356   1.962       .  S
O348        C362   1.282       .  A
O348       Cd352   2.092   1_554  S
O349        C360   1.281       .  A
O349       Cd352   2.075       .  S
Zn350       O361   1.986       .  S
Zn350       O363   1.945   1_554  S
Zn350       O355   1.880       .  S
O351        C362   1.284       .  A
O351       Cd356   2.089       .  S
Cd352       O354   2.017       .  S
Cd352       O355   1.960   1_556  S
Cd353       O357   2.135       .  S
Cd353       O366   2.164   1_556  S
Cd353       O355   2.035   1_556  S
O354        C364   1.258       .  A
O355       Cd356   1.922       .  S
Cd356       O358   2.125       .  S
O357        C364   1.276       .  A
C359        O363   1.248       .  A
C359       C2360   1.454       .  S
C360       C2296   1.451       .  S
C362       C2300   1.465       .  S
C364       C2297   1.449       .  S
C365        O366   1.290       .  A
C365       C2301   1.437       .  S
O367        C383   1.278       .  A
O367       Zn373   1.998       .  S
C368        O384   1.278       .  A
C368        O381   1.273       .  A
C368       C2287   1.441       .  S
O369        C382   1.288       .  A
O369       Cd376   2.171       .  S
O370        C388   1.252       .  A
O370       Cd379   1.999   1_655  S
O371        C385   1.280       .  A
O371       Cd375   2.135   1_556  S
O372        C383   1.272       .  A
O372       Cd375   2.040       .  S
Zn373       O384   2.042   1_455  S
Zn373       O386   1.954   1_455  S
Zn373       O378   1.933       .  S
O374        C385   1.271       .  A
O374       Cd379   2.045       .  S
Cd375       O377   1.981       .  S
Cd375       O378   1.974       .  S
Cd376       O380   2.173   1_654  S
Cd376       O389   2.181   1_554  S
Cd376       O378   2.010   1_655  S
O377        C387   1.254   1_554  A
O378       Cd379   1.979   1_554  S
Cd379       O381   2.060   1_456  S
O380        C387   1.291       .  A
C382        O386   1.262       .  A
C382       C2292   1.450       .  S
C383       C2283   1.481       .  S
C385       C2286   1.457       .  S
C387       C2290   1.429       .  S
C388        O389   1.282       .  A
C388       C2348   1.461       .  S
O390        C406   1.270       .  A
O390       Zn396   1.971   1_545  S
C391        O407   1.275       .  A
C391        O404   1.271       .  A
C391       C2279   1.427       .  S
O392        C405   1.285       .  A
O392       Cd399   2.138       .  S
O393        C411   1.257       .  A
O393       Cd402   2.004       .  S
O394        C408   1.278       .  A
O394       Cd398   2.070       .  S
O395        C406   1.279       .  A
O395       Cd398   2.086   1_545  S
Zn396       O407   2.003       .  S
Zn396       O409   1.933   1_565  S
Zn396       O401   1.872       .  S
O397        C408   1.278       .  A
O397       Cd402   2.087       .  S
Cd398       O400   2.021   1_565  S
Cd398       O401   1.957       .  S
Cd399       O403   2.128       .  S
Cd399       O412   2.127   1_545  S
Cd399       O401   2.008   1_545  S
O400        C410   1.263       .  A
O401       Cd402   1.952       .  S
Cd402       O404   2.037       .  S
O403        C410   1.282       .  A
C405        O409   1.261       .  A
C405       C2278   1.436       .  S
C406       C2282   1.435       .  S
C408       C2358   1.440       .  S
C410       C2273   1.439       .  S
C411        O412   1.278       .  A
C411       C2276   1.438       .  S
O413        C429   1.276       .  A
O413       Zn419   2.065       .  S
C414        O430   1.274       .  A
C414        O427   1.278       .  A
C414       C2267   1.458       .  S
O415        C428   1.279       .  A
O415       Cd422   2.176       .  S
O416        C434   1.256       .  A
O416       Cd425   1.959       .  S
O417        C431   1.279       .  A
O417       Cd421   2.050       .  S
O418        C429   1.281       .  A
O418       Cd421   2.105       .  S
Zn419       O430   2.002       .  S
Zn419       O432   1.947       .  S
Zn419       O424   1.907       .  S
O420        C431   1.276       .  A
O420       Cd425   2.059       .  S
Cd421       O423   1.984       .  S
Cd421       O424   1.988       .  S
Cd422       O426   2.118       .  S
Cd422       O435   2.157       .  S
Cd422       O424   2.032       .  S
O423        C433   1.259       .  A
O424       Cd425   1.980       .  S
Cd425       O427   2.115       .  S
O426        C433   1.279       .  A
C428        O432   1.245       .  A
C428       C2265   1.454       .  S
C429       C2269   1.458       .  S
C431       C2271   1.494       .  S
C433       C2263   1.425       .  S
C434        O435   1.289       .  A
C434       C2351   1.432       .  S
O436        C452   1.273       .  A
O436       Zn442   2.060   1_455  S
C437        O453   1.274       .  A
C437        O450   1.275       .  A
C437       C2256   1.454       .  S
O438        C451   1.283       .  A
O438       Cd445   2.188       .  S
O439        C457   1.259       .  A
O439       Cd448   1.967       .  S
O440        C454   1.281       .  A
O440       Cd444   2.059       .  S
O441        C452   1.283       .  A
O441       Cd444   2.134   1_455  S
Zn442       O453   2.004       .  S
Zn442       O455   1.951   1_655  S
Zn442       O447   1.908       .  S
O443        C454   1.272       .  A
O443       Cd448   2.048       .  S
Cd444       O446   1.982   1_655  S
Cd444       O447   1.986       .  S
Cd445       O449   2.168       .  S
Cd445       O458   2.178   1_455  S
Cd445       O447   2.026   1_455  S
O446        C456   1.258       .  A
O447       Cd448   1.992       .  S
Cd448       O450   2.103       .  S
O449        C456   1.288       .  A
C451        O455   1.247       .  A
C451       C2261   1.461       .  S
C452       C2260   1.471       .  S
C454       C2355   1.486       .  S
C456       C2253   1.441       .  S
C457        O458   1.293       .  A
C457       C2257   1.437       .  S
O459        C475   1.283       .  A
O459       Zn465   2.078       .  S
C460        O476   1.279   1_565  A
C460        O473   1.275   1_565  A
C460       C2247   1.492       .  S
O461        C474   1.287       .  A
O461       Cd468   2.154       .  S
O462        C480   1.257       .  A
O462       Cd471   1.981   1_565  S
O463        C477   1.274       .  A
O463       Cd467   2.043       .  S
O464        C475   1.280       .  A
O464       Cd467   2.120   1_556  S
Zn465       O476   2.012   1_556  S
Zn465       O478   1.930   1_545  S
Zn465       O470   1.932   1_556  S
O466        C477   1.280       .  A
O466       Cd471   2.125       .  S
Cd467       O469   1.999   1_554  S
Cd467       O470   1.975       .  S
Cd468       O472   2.177       .  S
Cd468       O481   2.185   1_556  S
Cd468       O470   2.022   1_566  S
O469        C479   1.242       .  A
O470       Cd471   1.975       .  S
Cd471       O473   2.038       .  S
O472        C479   1.279   1_565  A
C474        O478   1.261       .  A
C474       C2342   1.439       .  S
C475       C2246   1.465       .  S
C477       C2244   1.459       .  S
C479       C2251   1.452       .  S
C480        O481   1.292       .  A
C480       C2249   1.442       .  S
C482        N483   1.366       .  A
C482        N487   1.371       .  A
C482        C696   1.511       .  S
N483        C484   1.366       .  A
C484        N485   1.367       .  A
C484        C582   1.506       .  S
N485        C486   1.366       .  A
C486        N487   1.368       .  A
C486        C509   1.513       .  S
N488        C493   1.369       .  A
N488        C492   1.366       .  A
N488        H520   1.034       .  S
N489        C496   1.359       .  A
N489        C497   1.366       .  A
N490        C495   1.347       .  A
N490        C494   1.346       .  A
N490        H521   1.042       .  S
N491        C498   1.353       .  A
N491        C499   1.357       .  A
C492        C500   1.389       .  A
C492        C508   1.447       .  A
C493        C509   1.443       .  A
C493        C501   1.386       .  A
C494        C502   1.388       .  A
C494        C511   1.398       .  A
C495        C510   1.394       .  A
C495        C503   1.385       .  A
C496        C508   1.444       .  A
C496        C504   1.391       .  A
C497        C511   1.438       .  A
C497        C505   1.384       .  A
C498        C506   1.390       .  A
C498        C509   1.427       .  A
C499        C507   1.383       .  A
C499        C510   1.419       .  A
C500        C501   1.382       .  A
C500        H512   1.078       .  S
C501        H513   1.081       .  S
C502        C503   1.369       .  A
C502        H514   1.083       .  S
C503        H515   1.083       .  S
C504        C505   1.395       .  A
C504        H516   1.082       .  S
C505        H517   1.081       .  S
C506        C507   1.384       .  A
C506        H518   1.082       .  S
C507        H519   1.082       .  S
C508        C604   1.527       .  S
C510       C2330   1.459       .  S
C511       C2377   1.483       .  S
C522        N523   1.361       .  A
C522        N527   1.367       .  A
C522        C548   1.499       .  S
N523        C524   1.362       .  A
C524        N525   1.363       .  A
C524        C663   1.494       .  S
N525        C526   1.364       .  A
C526        N527   1.367       .  A
C526        C583   1.502       .  S
N528        C533   1.364       .  A
N528        C532   1.366       .  A
N528        H560   1.035       .  S
N529        C536   1.349       .  A
N529        C537   1.354       .  A
N530        C535   1.344       .  A
N530        C534   1.348       .  A
N530        H561   1.039       .  S
N531        C538   1.362       .  A
N531        C539   1.363       .  A
C532        C540   1.384       .  A
C532        C548   1.433       .  A
C533        C549   1.439       .  A
C533        C541   1.386       .  A
C534        C542   1.386       .  A
C534        C551   1.398       .  A
C535        C550   1.399       .  A
C535        C543   1.390       .  A
C536        C548   1.416       .  A
C536        C544   1.389       .  A
C537        C551   1.412       .  A
C537        C545   1.384       .  A
C538        C546   1.389       .  A
C538        C549   1.441       .  A
C539        C547   1.386       .  A
C539        C550   1.437       .  A
C540        C541   1.378       .  A
C540        H552   1.082       .  S
C541        H553   1.073       .  S
C542        C543   1.369       .  A
C542        H554   1.083       .  S
C543        H555   1.083       .  S
C544        C545   1.378       .  A
C544        H556   1.082       .  S
C545        H557   1.082       .  S
C546        C547   1.393       .  A
C546        H558   1.082       .  S
C547        H559   1.082       .  S
C549        C606   1.527       .  S
C550       C2266   1.468       .  S
C551       C2241   1.450       .  S
N562        C567   1.360       .  A
N562        C566   1.361       .  A
N562        H594   1.036       .  S
N563        C570   1.357       .  A
N563        C571   1.358       .  A
N564        C569   1.347       .  A
N564        C568   1.347       .  A
N564        H595   1.040       .  S
N565        C572   1.356       .  A
N565        C573   1.359       .  A
C566        C574   1.387       .  A
C566        C582   1.429       .  A
C567        C583   1.430       .  A
C567        C575   1.389       .  A
C568        C576   1.389       .  A
C568        C585   1.398       .  A
C569        C584   1.398       .  A
C569        C577   1.387       .  A
C570        C582   1.428       .  A
C570        C578   1.388       .  A
C571        C585   1.425       .  A
C571        C579   1.385       .  A
C572        C580   1.389       .  A
C572        C583   1.430       .  A
C573        C581   1.385       .  A
C573        C584   1.425       .  A
C574        C575   1.375       .  A
C574        H586   1.082       .  S
C575        H587   1.081       .  S
C576        C577   1.366       .  A
C576        H588   1.083       .  S
C577        H589   1.083       .  S
C578        C579   1.387       .  A
C578        H590   1.082       .  S
C579        H591   1.082       .  S
C580        C581   1.387       .  A
C580        H592   1.082       .  S
C581        H593   1.082       .  S
C584       C2250   1.461       .  S
C585       C2302   1.457       .  S
C596        N597   1.371       .  A
C596        N601   1.375       .  A
C596        C697   1.522       .  S
N597        C598   1.370       .  A
C598        N599   1.365       .  A
C598        C662   1.507       .  S
N599        C600   1.362       .  A
C600        N601   1.370       .  A
C600        C628   1.513       .  S
C602        N603   1.374       .  A
C602        N607   1.375       .  A
C602        C629   1.526       .  S
N603        C604   1.374       .  A
C604        N605   1.371       .  A
N605        C606   1.370       .  A
C606        N607   1.372       .  A
N608        C613   1.364       .  A
N608        C612   1.371       .  A
N608        H640   1.038       .  S
N609        C616   1.351       .  A
N609        C617   1.352       .  A
N610        C615   1.345       .  A
N610        C614   1.341       .  A
N610        H641   1.042       .  S
N611        C618   1.359       .  A
N611        C619   1.371       .  A
C612        C620   1.382       .  A
C612        C628   1.437       .  A
C613        C629   1.445       .  A
C613        C621   1.391       .  A
C614        C622   1.387       .  A
C614        C631   1.389       .  A
C615        C630   1.394       .  A
C615        C623   1.386       .  A
C616        C628   1.414       .  A
C616        C624   1.387       .  A
C617        C631   1.410       .  A
C617        C625   1.385       .  A
C618        C626   1.392       .  A
C618        C629   1.449       .  A
C619        C627   1.385       .  A
C619        C630   1.446       .  A
C620        C621   1.381       .  A
C620        H632   1.079       .  S
C621        H633   1.078       .  S
C622        C623   1.372       .  A
C622        H634   1.083       .  S
C623        H635   1.083       .  S
C624        C625   1.381       .  A
C624        H636   1.082       .  S
C625        H637   1.082       .  S
C626        C627   1.401       .  A
C626        H638   1.082       .  S
C627        H639   1.082       .  S
C630       C2306   1.497       .  S
C631       C2280   1.441       .  S
N642        C647   1.356       .  A
N642        C646   1.357       .  A
N642        H674   1.060   1_565  S
N643        C650   1.359       .  A
N643        C651   1.359       .  A
N644        C649   1.349       .  A
N644        C648   1.347       .  A
N644        H675   1.058       .  S
N645        C652   1.355       .  A
N645        C653   1.357       .  A
C646        C654   1.388       .  A
C646        C662   1.430       .  A
C647        C663   1.428       .  A
C647        C655   1.389       .  A
C648        C656   1.389       .  A
C648        C665   1.406       .  A
C649        C664   1.405       .  A
C649        C657   1.388       .  A
C650        C662   1.432   1_545  A
C650        C658   1.387       .  A
C651        C665   1.430       .  A
C651        C659   1.386       .  A
C652        C660   1.388       .  A
C652        C663   1.425   1_545  A
C653        C661   1.386       .  A
C653        C664   1.424       .  A
C654        C655   1.371       .  A
C654        H666   1.080       .  S
C655        H667   1.081       .  S
C656        C657   1.366       .  A
C656        H668   1.083       .  S
C657        H669   1.083       .  S
C658        C659   1.387       .  A
C658        H670   1.082       .  S
C659        H671   1.082       .  S
C660        C661   1.384       .  A
C660        H672   1.082       .  S
C661        H673   1.082       .  S
C664       C2372   1.459       .  S
C665       C2322   1.461       .  S
N676        C681   1.366       .  A
N676        C680   1.362       .  A
N676        H708   1.032       .  S
N677        C684   1.358       .  A
N677        C685   1.363       .  A
N678        C683   1.349       .  A
N678        C682   1.351       .  A
N678        H709   1.041       .  S
N679        C686   1.359       .  A
N679        C687   1.360       .  A
C680        C688   1.389       .  A
C680        C696   1.437       .  A
C681        C697   1.437       .  A
C681        C689   1.388       .  A
C682        C690   1.386       .  A
C682        C699   1.401       .  A
C683        C698   1.403       .  A
C683        C691   1.389       .  A
C684        C696   1.438       .  A
C684        C692   1.390       .  A
C685        C699   1.431       .  A
C685        C693   1.384       .  A
C686        C694   1.389       .  A
C686        C697   1.438       .  A
C687        C695   1.385       .  A
C687        C698   1.431       .  A
C688        C689   1.373       .  A
C688        H700   1.079       .  S
C689        H701   1.082       .  S
C690        C691   1.368       .  A
C690        H702   1.083       .  S
C691        H703   1.083       .  S
C692        C693   1.391       .  A
C692        H704   1.082       .  S
C693        H705   1.082       .  S
C694        C695   1.391       .  A
C694        H706   1.082       .  S
C695        H707   1.082       .  S
C698       C2240   1.470       .  S
C699       C2259   1.478       .  S
O710        C726   1.277       .  A
O710       Zn716   2.029       .  S
C711        O727   1.277       .  A
C711        O724   1.271       .  A
C711       C2236   1.431       .  S
O712        C725   1.280       .  A
O712       Cd719   2.117       .  S
O713        C731   1.259       .  A
O713       Cd722   2.013   1_565  S
O714        C728   1.273       .  A
O714       Cd718   2.065       .  S
O715        C726   1.273       .  A
O715       Cd718   2.047       .  S
Zn716       O727   2.019   1_545  S
Zn716       O729   1.944   1_545  S
Zn716       O721   1.903       .  S
O717        C728   1.271       .  A
O717       Cd722   2.034       .  S
Cd718       O720   1.982       .  S
Cd718       O721   1.943       .  S
Cd719       O723   2.135   1_565  S
Cd719       O732   2.135       .  S
Cd719       O721   2.008   1_565  S
O720        C730   1.260       .  A
O721       Cd722   1.951       .  S
Cd722       O724   2.048   1_545  S
O723        C730   1.285       .  A
C725        O729   1.261       .  A
C725       C2242   1.433       .  S
C726       C2233   1.439       .  S
C728       C2231   1.433       .  S
C730       C2237   1.429       .  S
C731        O732   1.280       .  A
C731       C2353   1.440       .  S
O733        C749   1.275       .  A
O733       Zn739   2.049   1_556  S
C734        O750   1.274       .  A
C734        O747   1.275       .  A
C734       C2230   1.448       .  S
O735        C748   1.277       .  A
O735       Cd742   2.174       .  S
O736        C754   1.255       .  A
O736       Cd745   2.001       .  S
O737        C751   1.272       .  A
O737       Cd741   2.268       .  S
O738        C749   1.273       .  A
O738       Cd741   2.295       .  S
Zn739       O750   2.018       .  S
Zn739       O752   1.944       .  S
Zn739       O744   1.913   1_554  S
O740        C751   1.276       .  A
O740       Cd745   2.060   1_556  S
Cd741       O743   2.189       .  S
Cd741       O744   2.118       .  S
Cd742       O746   2.128   1_554  S
Cd742       O755   2.184       .  S
Cd742       O744   2.065   1_554  S
O743        C753   1.262       .  A
O744       Cd745   1.996   1_556  S
Cd745       O747   2.079       .  S
O746        C753   1.279       .  A
C748        O752   1.249       .  A
C748       C2222   1.456       .  S
C749       C2340   1.459       .  S
C751       C2227   1.444       .  S
C753       C2224   1.440       .  S
C754        O755   1.283       .  A
C754       C2225   1.468       .  S
C756        N757   1.363       .  A
C756        N761   1.369       .  A
C756        C937   1.503       .  S
N757        C758   1.364       .  A
C758        N759   1.366       .  A
C758        C971   1.499       .  S
N759        C760   1.366       .  A
C760        N761   1.368       .  A
C760        C869   1.510       .  S
C762        N763   1.370       .  A
C762        N767   1.367       .  A
C762        C835   1.517       .  S
N763        C764   1.372       .  A
C764        N765   1.373       .  A
C764        C936   1.525       .  S
N765        C766   1.374   1_556  A
C766        N767   1.368   1_554  A
C766        C903   1.519       .  S
C768        N769   1.366       .  A
C768        N773   1.364       .  A
C768        C868   1.494       .  S
N769        C770   1.367       .  A
C770        N771   1.364       .  A
C770        C800   1.498       .  S
N771        C772   1.360       .  A
C772        N773   1.358       .  A
C772        C834   1.492       .  S
C774        N775   1.365       .  A
C774        N779   1.363       .  A
C774        C970   1.500       .  S
N775        C776   1.366       .  A
C776        N777   1.370       .  A
C776        C801   1.509       .  S
N777        C778   1.369       .  A
C778        N779   1.364       .  A
C778        C902   1.508   1_556  S
N780        C785   1.363       .  A
N780        C784   1.359       .  A
N780        H812   1.035       .  S
N781        C788   1.353       .  A
N781        C789   1.357       .  A
N782        C787   1.348       .  A
N782        C786   1.350       .  A
N782        H813   1.040       .  S
N783        C790   1.356       .  A
N783        C791   1.356       .  A
C784        C792   1.387       .  A
C784        C800   1.431       .  A
C785        C801   1.426       .  A
C785        C793   1.384       .  A
C786        C794   1.387       .  A
C786        C803   1.401       .  A
C787        C802   1.401       .  A
C787        C795   1.388       .  A
C788        C800   1.425       .  A
C788        C796   1.389       .  A
C789        C803   1.421       .  A
C789        C797   1.385       .  A
C790        C798   1.387       .  A
C790        C801   1.427       .  A
C791        C799   1.386       .  A
C791        C802   1.423       .  A
C792        C793   1.368       .  A
C792        H804   1.072       .  S
C793        H805   1.082       .  S
C794        C795   1.368       .  A
C794        H806   1.083       .  S
C795        H807   1.083       .  S
C796        C797   1.386       .  A
C796        H808   1.082       .  S
C797        H809   1.082       .  S
C798        C799   1.388       .  A
C798        H810   1.082       .  S
C799        H811   1.082       .  S
C802       C2298   1.458       .  S
C803       C2308   1.461       .  S
N814        C819   1.364       .  A
N814        C818   1.362       .  A
N814        H846   1.034       .  S
N815        C822   1.348       .  A
N815        C823   1.354       .  A
N816        C821   1.344       .  A
N816        C820   1.350       .  A
N816        H847   1.038       .  S
N817        C824   1.358       .  A
N817        C825   1.358       .  A
C818        C826   1.386       .  A
C818        C834   1.436       .  A
C819        C835   1.435       .  A
C819        C827   1.386       .  A
C820        C828   1.385       .  A
C820        C837   1.399       .  A
C821        C836   1.403       .  A
C821        C829   1.392       .  A
C822        C834   1.415       .  A
C822        C830   1.389       .  A
C823        C837   1.412       .  A
C823        C831   1.384       .  A
C824        C832   1.387       .  A
C824        C835   1.430       .  A
C825        C833   1.385       .  A
C825        C836   1.425       .  A
C826        C827   1.380       .  A
C826        H838   1.076       .  S
C827        H839   1.080       .  S
C828        C829   1.368       .  A
C828        H840   1.083       .  S
C829        H841   1.083       .  S
C830        C831   1.377       .  A
C830        H842   1.082       .  S
C831        H843   1.082       .  S
C832        C833   1.386       .  A
C832        H844   1.082       .  S
C833        H845   1.082       .  S
C836       C2228   1.452       .  S
C837       C2219   1.451       .  S
N848        C853   1.362       .  A
N848        C852   1.358       .  A
N848        H880   1.032       .  S
N849        C856   1.353       .  A
N849        C857   1.359       .  A
N850        C855   1.348       .  A
N850        C854   1.352       .  A
N850        H881   1.039       .  S
N851        C858   1.358       .  A
N851        C859   1.356       .  A
C852        C860   1.390       .  A
C852        C868   1.431       .  A
C853        C869   1.428       .  A
C853        C861   1.384       .  A
C854        C862   1.387       .  A
C854        C871   1.405       .  A
C855        C870   1.404       .  A
C855        C863   1.389       .  A
C856        C868   1.428       .  A
C856        C864   1.389       .  A
C857        C871   1.425       .  A
C857        C865   1.384       .  A
C858        C866   1.387       .  A
C858        C869   1.429       .  A
C859        C867   1.387       .  A
C859        C870   1.426       .  A
C860        C861   1.371       .  A
C860        H872   1.081       .  S
C861        H873   1.077       .  S
C862        C863   1.370       .  A
C862        H874   1.083       .  S
C863        H875   1.083       .  S
C864        C865   1.387       .  A
C864        H876   1.082       .  S
C865        H877   1.082       .  S
C866        C867   1.386       .  A
C866        H878   1.082       .  S
C867        H879   1.082       .  S
C870       C2317   1.455       .  S
C871       C2379   1.471       .  S
N882        C887   1.363       .  A
N882        C886   1.365       .  A
N882        H914   1.036       .  S
N883        C890   1.355       .  A
N883        C891   1.357       .  A
N884        C889   1.348       .  A
N884        C888   1.349       .  A
N884        H915   1.040       .  S
N885        C892   1.360       .  A
N885        C893   1.364       .  A
C886        C894   1.386   1_554  A
C886        C902   1.435       .  A
C887        C903   1.438       .  A
C887        C895   1.390   1_554  A
C888        C896   1.387       .  A
C888        C905   1.401       .  A
C889        C904   1.400       .  A
C889        C897   1.386       .  A
C890        C902   1.425       .  A
C890        C898   1.388       .  A
C891        C905   1.420       .  A
C891        C899   1.385       .  A
C892        C900   1.390       .  A
C892        C903   1.441       .  A
C893        C901   1.385       .  A
C893        C904   1.436       .  A
C894        C895   1.380       .  A
C894        H906   1.082       .  S
C895        H907   1.081       .  S
C896        C897   1.370       .  A
C896        H908   1.083       .  S
C897        H909   1.083       .  S
C898        C899   1.383       .  A
C898        H910   1.082       .  S
C899        H911   1.082       .  S
C900        C901   1.393       .  A
C900        H912   1.082       .  S
C901        H913   1.082       .  S
C904       C2369   1.477       .  S
C905       C2335   1.458       .  S
N916        C921   1.364       .  A
N916        C920   1.363       .  A
N916        H948   1.034       .  S
N917        C924   1.362       .  A
N917        C925   1.364       .  A
N918        C923   1.347       .  A
N918        C922   1.346       .  A
N918        H949   1.038       .  S
N919        C926   1.351       .  A
N919        C927   1.355       .  A
C920        C928   1.387       .  A
C920        C936   1.436       .  A
C921        C937   1.434       .  A
C921        C929   1.385       .  A
C922        C930   1.391       .  A
C922        C939   1.402       .  A
C923        C938   1.398       .  A
C923        C931   1.387       .  A
C924        C936   1.441       .  A
C924        C932   1.389       .  A
C925        C939   1.437       .  A
C925        C933   1.386       .  A
C926        C934   1.389       .  A
C926        C937   1.421       .  A
C927        C935   1.384       .  A
C927        C938   1.415       .  A
C928        C929   1.377       .  A
C928        H940   1.079       .  S
C929        H941   1.078       .  S
C930        C931   1.367       .  A
C930        H942   1.083       .  S
C931        H943   1.083       .  S
C932        C933   1.392       .  A
C932        H944   1.082       .  S
C933        H945   1.082       .  S
C934        C935   1.383       .  A
C934        H946   1.082       .  S
C935        H947   1.082       .  S
C938       C2281   1.451       .  S
C939       C2252   1.468       .  S
N950        C955   1.360       .  A
N950        C954   1.363       .  A
N950        H982   1.037       .  S
N951        C958   1.352       .  A
N951        C959   1.355       .  A
N952        C957   1.345       .  A
N952        C956   1.345       .  A
N952        H983   1.041       .  S
N953        C960   1.352       .  A
N953        C961   1.357       .  A
C954        C962   1.387       .  A
C954        C970   1.429       .  A
C955        C971   1.430       .  A
C955        C963   1.387       .  A
C956        C964   1.384       .  A
C956        C973   1.389       .  A
C957        C972   1.398       .  A
C957        C965   1.390       .  A
C958        C970   1.422       .  A
C958        C966   1.389       .  A
C959        C973   1.417       .  A
C959        C967   1.384       .  A
C960        C968   1.389       .  A
C960        C971   1.425       .  A
C961        C969   1.384       .  A
C961        C972   1.419       .  A
C962        C963   1.377       .  A
C962        H974   1.082       .  S
C963        H975   1.079       .  S
C964        C965   1.366       .  A
C964        H976   1.083       .  S
C965        H977   1.082       .  S
C966        C967   1.385       .  A
C966        H978   1.082       .  S
C967        H979   1.082       .  S
C968        C969   1.388       .  A
C968        H980   1.082       .  S
C969        H981   1.082       .  S
C972       C2218   1.455       .  S
C973       C2289   1.451       .  S
C984        N985   1.371       .  A
C984        N989   1.363       .  A
C984       C1164   1.507       .  S
N985        C986   1.372       .  A
C986        N987   1.374       .  A
C986       C1011   1.523       .  S
N987        C988   1.371       .  A
C988        N989   1.361       .  A
C988       C1198   1.513       .  S
N990        C995   1.364       .  A
N990        C994   1.357       .  A
N990       H1022   1.028       .  S
N991        C998   1.353       .  A
N991        C999   1.358       .  A
N992        C997   1.350       .  A
N992        C996   1.358       .  A
N992       H1023   1.037       .  S
N993       C1000   1.362       .  A
N993       C1001   1.359       .  A
C994       C1002   1.390       .  A
C994       C1010   1.431       .  A
C995       C1011   1.432       .  A
C995       C1003   1.387       .  A
C996       C1004   1.385       .  A
C996       C1013   1.411       .  A
C997       C1012   1.413       .  A
C997       C1005   1.390       .  A
C998       C1010   1.427       .  A
C998       C1006   1.389       .  A
C999       C1013   1.423       .  A
C999       C1007   1.385       .  A
C1000      C1008   1.387       .  A
C1000      C1011   1.438       .  A
C1001      C1009   1.387       .  A
C1001      C1012   1.434       .  A
C1002      C1003   1.371       .  A
C1002      H1014   1.080       .  S
C1003      H1015   1.081       .  S
C1004      C1005   1.368       .  A
C1004      H1016   1.083       .  S
C1005      H1017   1.082       .  S
C1006      C1007   1.383       .  A
C1006      H1018   1.082       .  S
C1007      H1019   1.083       .  S
C1008      C1009   1.391       .  A
C1008      H1020   1.082       .  S
C1009      H1021   1.082       .  S
C1010      C1040   1.488       .  S
C1012      C2270   1.466       .  S
C1013      C2382   1.471       .  S
C1024      N1025   1.366       .  A
C1024      N1029   1.364       .  A
C1024      C1165   1.506       .  S
N1025      C1026   1.368       .  A
C1026      N1027   1.366       .  A
C1026      C1096   1.503       .  S
N1027      C1028   1.364   1_554  A
C1028      N1029   1.364   1_556  A
C1028      C1131   1.501       .  S
C1030      N1031   1.371       .  A
C1030      N1035   1.372       .  A
C1030      C1130   1.525   1_554  S
N1031      C1032   1.372       .  A
C1032      N1033   1.372       .  A
C1032      C1199   1.527       .  S
N1033      C1034   1.374       .  A
C1034      N1035   1.372       .  A
C1034      C1062   1.524       .  S
C1036      N1037   1.364       .  A
C1036      N1041   1.365       .  A
C1036      C1097   1.497       .  S
N1037      C1038   1.360       .  A
C1038      N1039   1.356       .  A
C1038      C1063   1.486       .  S
N1039      C1040   1.358       .  A
C1040      N1041   1.366       .  A
N1042      C1047   1.361       .  A
N1042      C1046   1.365       .  A
N1042      H1074   1.036       .  S
N1043      C1050   1.359       .  A
N1043      C1051   1.361       .  A
N1044      C1049   1.350       .  A
N1044      C1048   1.344       .  A
N1044      H1075   1.039       .  S
N1045      C1052   1.347       .  A
N1045      C1053   1.353       .  A
C1046      C1054   1.387       .  A
C1046      C1062   1.436       .  A
C1047      C1063   1.429       .  A
C1047      C1055   1.385       .  A
C1048      C1056   1.388       .  A
C1048      C1065   1.398       .  A
C1049      C1064   1.401       .  A
C1049      C1057   1.387       .  A
C1050      C1062   1.437       .  A
C1050      C1058   1.388       .  A
C1051      C1065   1.433       .  A
C1051      C1059   1.386       .  A
C1052      C1060   1.390       .  A
C1052      C1063   1.413       .  A
C1053      C1061   1.384       .  A
C1053      C1064   1.409       .  A
C1054      C1055   1.378       .  A
C1054      H1066   1.076       .  S
C1055      H1067   1.080       .  S
C1056      C1057   1.371       .  A
C1056      H1068   1.083       .  S
C1057      H1069   1.083       .  S
C1058      C1059   1.394       .  A
C1058      H1070   1.082       .  S
C1059      H1071   1.082       .  S
C1060      C1061   1.378       .  A
C1060      H1072   1.082       .  S
C1061      H1073   1.082       .  S
C1064      C2327   1.449       .  S
C1065      C2299   1.470       .  S
N1076      C1081   1.363       .  A
N1076      C1080   1.358       .  A
N1076      H1108   1.035       .  S
N1077      C1084   1.357       .  A
N1077      C1085   1.363       .  A
N1078      C1083   1.347       .  A
N1078      C1082   1.349       .  A
N1078      H1109   1.041       .  S
N1079      C1086   1.350       .  A
N1079      C1087   1.352       .  A
C1080      C1088   1.389       .  A
C1080      C1096   1.432       .  A
C1081      C1097   1.430       .  A
C1081      C1089   1.387       .  A
C1082      C1090   1.386       .  A
C1082      C1099   1.398       .  A
C1083      C1098   1.399       .  A
C1083      C1091   1.388       .  A
C1084      C1096   1.434       .  A
C1084      C1092   1.389       .  A
C1085      C1099   1.431       .  A
C1085      C1093   1.384       .  A
C1086      C1094   1.389       .  A
C1086      C1097   1.419       .  A
C1087      C1095   1.385       .  A
C1087      C1098   1.413       .  A
C1088      C1089   1.375       .  A
C1088      H1100   1.079       .  S
C1089      H1101   1.082       .  S
C1090      C1091   1.369       .  A
C1090      H1102   1.083       .  S
C1091      H1103   1.082       .  S
C1092      C1093   1.391       .  A
C1092      H1104   1.082       .  S
C1093      H1105   1.082       .  S
C1094      C1095   1.384       .  A
C1094      H1106   1.082       .  S
C1095      H1107   1.082       .  S
C1098      C2368   1.448       .  S
C1099      C2226   1.475       .  S
N1110      C1115   1.364       .  A
N1110      C1114   1.367       .  A
N1110      H1142   1.034       .  S
N1111      C1118   1.358       .  A
N1111      C1119   1.360       .  A
N1112      C1117   1.348       .  A
N1112      C1116   1.346       .  A
N1112      H1143   1.042       .  S
N1113      C1120   1.350       .  A
N1113      C1121   1.356       .  A
C1114      C1122   1.385   1_556  A
C1114      C1130   1.440       .  A
C1115      C1131   1.439       .  A
C1115      C1123   1.386   1_556  A
C1116      C1124   1.387       .  A
C1116      C1133   1.395       .  A
C1117      C1132   1.400       .  A
C1117      C1125   1.387       .  A
C1118      C1130   1.434       .  A
C1118      C1126   1.388       .  A
C1119      C1133   1.430       .  A
C1119      C1127   1.385       .  A
C1120      C1128   1.391       .  A
C1120      C1131   1.425       .  A
C1121      C1129   1.383       .  A
C1121      C1132   1.415       .  A
C1122      C1123   1.378       .  A
C1122      H1134   1.077       .  S
C1123      H1135   1.078       .  S
C1124      C1125   1.370       .  A
C1124      H1136   1.083       .  S
C1125      H1137   1.082       .  S
C1126      C1127   1.390       .  A
C1126      H1138   1.082       .  S
C1127      H1139   1.082       .  S
C1128      C1129   1.385       .  A
C1128      H1140   1.082       .  S
C1129      H1141   1.083       .  S
C1132      C2215   1.459       .  S
C1133      C2310   1.466       .  S
N1144      C1149   1.363       .  A
N1144      C1148   1.362       .  A
N1144      H1176   1.037       .  S
N1145      C1152   1.355       .  A
N1145      C1153   1.359       .  A
N1146      C1151   1.344       .  A
N1146      C1150   1.347       .  A
N1146      H1177   1.042       .  S
N1147      C1154   1.353       .  A
N1147      C1155   1.355       .  A
C1148      C1156   1.388       .  A
C1148      C1164   1.437       .  A
C1149      C1165   1.436       .  A
C1149      C1157   1.386       .  A
C1150      C1158   1.387       .  A
C1150      C1167   1.397       .  A
C1151      C1166   1.396       .  A
C1151      C1159   1.389       .  A
C1152      C1164   1.431       .  A
C1152      C1160   1.389       .  A
C1153      C1167   1.425       .  A
C1153      C1161   1.384       .  A
C1154      C1162   1.389       .  A
C1154      C1165   1.426       .  A
C1155      C1163   1.384       .  A
C1155      C1166   1.418       .  A
C1156      C1157   1.377       .  A
C1156      H1168   1.080       .  S
C1157      H1169   1.080       .  S
C1158      C1159   1.368       .  A
C1158      H1170   1.083       .  S
C1159      H1171   1.083       .  S
C1160      C1161   1.386       .  A
C1160      H1172   1.082       .  S
C1161      H1173   1.082       .  S
C1162      C1163   1.386       .  A
C1162      H1174   1.082       .  S
C1163      H1175   1.082       .  S
C1166      C2288   1.449       .  S
C1167      C2258   1.460       .  S
N1178      C1183   1.362       .  A
N1178      C1182   1.369       .  A
N1178      H1210   1.034       .  S
N1179      C1186   1.354       .  A
N1179      C1187   1.353       .  A
N1180      C1185   1.350       .  A
N1180      C1184   1.347       .  A
N1180      H1211   1.039       .  S
N1181      C1188   1.362       .  A
N1181      C1189   1.369       .  A
C1182      C1190   1.382       .  A
C1182      C1198   1.435       .  A
C1183      C1199   1.443       .  A
C1183      C1191   1.388       .  A
C1184      C1192   1.388       .  A
C1184      C1201   1.401       .  A
C1185      C1200   1.403       .  A
C1185      C1193   1.388       .  A
C1186      C1198   1.421       .  A
C1186      C1194   1.387       .  A
C1187      C1201   1.415       .  A
C1187      C1195   1.385       .  A
C1188      C1196   1.391       .  A
C1188      C1199   1.449       .  A
C1189      C1197   1.385       .  A
C1189      C1200   1.444       .  A
C1190      C1191   1.377       .  A
C1190      H1202   1.081       .  S
C1191      H1203   1.073       .  S
C1192      C1193   1.368       .  A
C1192      H1204   1.083       .  S
C1193      H1205   1.083       .  S
C1194      C1195   1.380       .  A
C1194      H1206   1.082       .  S
C1195      H1207   1.082       .  S
C1196      C1197   1.397       .  A
C1196      H1208   1.082       .  S
C1197      H1209   1.082       .  S
C1200      C2248   1.493       .  S
C1201      C2235   1.445       .  S
O1212      C1228   1.270       .  A
O1212     Zn1218   1.985       .  S
C1213      O1229   1.268       .  A
C1213      O1226   1.268       .  A
C1213      C2214   1.421       .  S
O1214      C1227   1.288       .  A
O1214     Cd1221   2.169       .  S
O1215      C1233   1.264       .  A
O1215     Cd1224   1.994       .  S
O1216      C1230   1.270       .  A
O1216     Cd1220   2.059       .  S
O1217      C1228   1.269       .  A
O1217     Cd1220   2.054       .  S
Zn1218     O1229   1.986       .  S
Zn1218     O1231   1.918       .  S
Zn1218     O1223   1.920       .  S
O1219      C1230   1.268       .  A
O1219     Cd1224   2.035       .  S
Cd1220     O1222   2.004       .  S
Cd1220     O1223   1.986       .  S
Cd1221     O1225   2.142       .  S
Cd1221     O1234   2.159       .  S
Cd1221     O1223   2.003       .  S
O1222      C1232   1.265       .  A
O1223     Cd1224   1.969       .  S
Cd1224     O1226   2.044       .  S
O1225      C1232   1.286       .  A
C1227      O1231   1.258       .  A
C1227      C2209   1.444       .  S
C1228      C2211   1.429       .  S
C1230      C2216   1.451       .  S
C1232      C2220   1.434       .  S
C1233      O1234   1.289       .  A
C1233      C2346   1.435       .  S
O1235      C1251   1.282   1_565  A
O1235     Zn1241   2.002       .  S
C1236      O1252   1.282       .  A
C1236      O1249   1.274       .  A
C1236      C2350   1.464       .  S
O1237      C1250   1.283       .  A
O1237     Cd1244   2.150   1_655  S
O1238      C1256   1.247       .  A
O1238     Cd1247   1.999       .  S
O1239      C1253   1.280       .  A
O1239     Cd1243   2.133   1_455  S
O1240      C1251   1.275   1_565  A
O1240     Cd1243   2.053       .  S
Zn1241     O1252   2.081       .  S
Zn1241     O1254   1.910   1_565  S
Zn1241     O1246   1.948       .  S
O1242      C1253   1.273       .  A
O1242     Cd1247   2.050       .  S
Cd1243     O1245   1.973   1_665  S
Cd1243     O1246   1.995       .  S
Cd1244     O1248   2.191       .  S
Cd1244     O1257   2.193       .  S
Cd1244     O1246   2.033   1_445  S
O1245      C1255   1.258       .  A
O1246     Cd1247   1.981   1_655  S
Cd1247     O1249   2.099   1_455  S
O1248      C1255   1.294       .  A
C1250      O1254   1.255       .  A
C1250      C2203   1.435       .  S
C1251      C2207   1.499       .  S
C1253      C2239   1.461       .  S
C1255      C2201   1.447       .  S
C1256      O1257   1.283   1_565  A
C1256      C2205   1.462       .  S
C1258      N1259   1.368       .  A
C1258      N1263   1.368       .  A
C1258      C1472   1.504       .  S
N1259      C1260   1.366       .  A
C1260      N1261   1.364       .  A
C1260      C1405   1.501       .  S
N1261      C1262   1.361       .  A
C1262      N1263   1.364       .  A
C1262      C1331   1.502       .  S
C1264      N1265   1.365       .  A
C1264      N1269   1.368       .  A
C1264      C1439   1.504       .  S
N1265      C1266   1.365       .  A
C1266      N1267   1.369       .  A
C1266      C1404   1.506       .  S
N1267      C1268   1.367       .  A
C1268      N1269   1.366       .  A
C1268      C1296   1.513       .  S
C1270      N1271   1.373       .  A
C1270      N1275   1.373       .  A
C1270      C1371   1.519       .  S
N1271      C1272   1.372       .  A
C1272      N1273   1.375       .  A
C1272      C1330   1.532       .  S
N1273      C1274   1.375       .  A
C1274      N1275   1.369       .  A
C1274      C1297   1.531       .  S
N1276      C1281   1.366       .  A
N1276      C1280   1.369       .  A
N1276      H1308   1.033       .  S
N1277      C1284   1.353       .  A
N1277      C1285   1.355       .  A
N1278      C1283   1.346       .  A
N1278      C1282   1.346       .  A
N1278      H1309   1.041       .  S
N1279      C1286   1.358       .  A
N1279      C1287   1.365       .  A
C1280      C1288   1.383       .  A
C1280      C1296   1.438       .  A
C1281      C1297   1.446       .  A
C1281      C1289   1.385       .  A
C1282      C1290   1.387       .  A
C1282      C1299   1.395       .  A
C1283      C1298   1.397       .  A
C1283      C1291   1.387       .  A
C1284      C1296   1.423       .  A
C1284      C1292   1.389       .  A
C1285      C1299   1.417       .  A
C1285      C1293   1.384       .  A
C1286      C1294   1.391       .  A
C1286      C1297   1.443       .  A
C1287      C1295   1.385       .  A
C1287      C1298   1.437       .  A
C1288      C1289   1.378       .  A
C1288      H1300   1.081       .  S
C1289      H1301   1.069       .  S
C1290      C1291   1.371       .  A
C1290      H1302   1.083       .  S
C1291      H1303   1.083       .  S
C1292      C1293   1.384       .  A
C1292      H1304   1.082       .  S
C1293      H1305   1.082       .  S
C1294      C1295   1.397       .  A
C1294      H1306   1.082       .  S
C1295      H1307   1.082       .  S
C1298      C2366   1.483       .  S
C1299      C2234   1.452       .  S
N1310      C1315   1.368       .  A
N1310      C1314   1.366       .  A
N1310      H1342   1.034       .  S
N1311      C1318   1.360       .  A
N1311      C1319   1.366       .  A
N1312      C1317   1.347       .  A
N1312      C1316   1.344       .  A
N1312      H1343   1.043       .  S
N1313      C1320   1.348       .  A
N1313      C1321   1.353       .  A
C1314      C1322   1.387       .  A
C1314      C1330   1.445       .  A
C1315      C1331   1.439       .  A
C1315      C1323   1.384       .  A
C1316      C1324   1.387       .  A
C1316      C1333   1.395       .  A
C1317      C1332   1.392       .  A
C1317      C1325   1.384       .  A
C1318      C1330   1.446       .  A
C1318      C1326   1.391       .  A
C1319      C1333   1.440       .  A
C1319      C1327   1.385       .  A
C1320      C1328   1.390       .  A
C1320      C1331   1.417       .  A
C1321      C1329   1.383       .  A
C1321      C1332   1.411       .  A
C1322      C1323   1.380       .  A
C1322      H1334   1.073       .  S
C1323      H1335   1.081       .  S
C1324      C1325   1.371       .  A
C1324      H1336   1.083       .  S
C1325      H1337   1.082       .  S
C1326      C1327   1.398       .  A
C1326      H1338   1.082       .  S
C1327      H1339   1.081       .  S
C1328      C1329   1.380       .  A
C1328      H1340   1.082       .  S
C1329      H1341   1.082       .  S
C1332      C2277   1.452       .  S
C1333      C2315   1.487       .  S
C1344      N1345   1.363       .  A
C1344      N1349   1.366       .  A
C1344      C1473   1.497       .  S
N1345      C1346   1.363       .  A
C1346      N1347   1.364       .  A
C1346      C1438   1.496       .  S
N1347      C1348   1.363       .  A
C1348      N1349   1.363       .  A
C1348      C1370   1.499       .  S
N1350      C1355   1.362       .  A
N1350      C1354   1.367       .  A
N1350      H1382   1.035       .  S
N1351      C1358   1.347       .  A
N1351      C1359   1.351       .  A
N1352      C1357   1.342       .  A
N1352      C1356   1.342       .  A
N1352      H1383   1.043       .  S
N1353      C1360   1.358       .  A
N1353      C1361   1.365       .  A
C1354      C1362   1.383       .  A
C1354      C1370   1.433       .  A
C1355      C1371   1.441       .  A
C1355      C1363   1.388       .  A
C1356      C1364   1.386       .  A
C1356      C1373   1.389       .  A
C1357      C1372   1.389       .  A
C1357      C1365   1.386       .  A
C1358      C1370   1.414       .  A
C1358      C1366   1.389       .  A
C1359      C1373   1.407       .  A
C1359      C1367   1.383       .  A
C1360      C1368   1.391       .  A
C1360      C1371   1.442       .  A
C1361      C1369   1.385       .  A
C1361      C1372   1.438       .  A
C1362      C1363   1.377       .  A
C1362      H1374   1.081       .  S
C1363      H1375   1.074       .  S
C1364      C1365   1.370       .  A
C1364      H1376   1.083       .  S
C1365      H1377   1.082       .  S
C1366      C1367   1.382       .  A
C1366      H1378   1.082       .  S
C1367      H1379   1.082       .  S
C1368      C1369   1.397       .  A
C1368      H1380   1.082       .  S
C1369      H1381   1.082       .  S
C1372      C2384   1.476       .  S
C1373      C2212   1.441       .  S
N1384      C1389   1.361       .  A
N1384      C1388   1.361       .  A
N1384      H1416   1.030   1_545  S
N1385      C1392   1.356       .  A
N1385      C1393   1.359       .  A
N1386      C1391   1.349       .  A
N1386      C1390   1.349       .  A
N1386      H1417   1.040       .  S
N1387      C1394   1.354       .  A
N1387      C1395   1.355       .  A
C1388      C1396   1.388       .  A
C1388      C1404   1.433       .  A
C1389      C1405   1.431       .  A
C1389      C1397   1.387       .  A
C1390      C1398   1.387       .  A
C1390      C1407   1.402       .  A
C1391      C1406   1.402       .  A
C1391      C1399   1.388       .  A
C1392      C1404   1.432   1_565  A
C1392      C1400   1.389       .  A
C1393      C1407   1.427       .  A
C1393      C1401   1.385       .  A
C1394      C1402   1.388       .  A
C1394      C1405   1.425   1_565  A
C1395      C1403   1.385       .  A
C1395      C1406   1.420       .  A
C1396      C1397   1.374       .  A
C1396      H1408   1.080       .  S
C1397      H1409   1.081       .  S
C1398      C1399   1.370       .  A
C1398      H1410   1.083       .  S
C1399      H1411   1.083       .  S
C1400      C1401   1.389       .  A
C1400      H1412   1.082       .  S
C1401      H1413   1.082       .  S
C1402      C1403   1.385       .  A
C1402      H1414   1.082       .  S
C1403      H1415   1.082       .  S
C1406      C2312   1.454       .  S
C1407      C2268   1.467       .  S
N1418      C1423   1.360       .  A
N1418      C1422   1.357       .  A
N1418      H1450   1.031       .  S
N1419      C1426   1.356       .  A
N1419      C1427   1.359       .  A
N1420      C1425   1.350       .  A
N1420      C1424   1.354       .  A
N1420      H1451   1.037       .  S
N1421      C1428   1.357       .  A
N1421      C1429   1.356       .  A
C1422      C1430   1.389       .  A
C1422      C1438   1.430       .  A
C1423      C1439   1.430       .  A
C1423      C1431   1.387       .  A
C1424      C1432   1.386       .  A
C1424      C1441   1.410       .  A
C1425      C1440   1.410       .  A
C1425      C1433   1.390       .  A
C1426      C1438   1.430       .  A
C1426      C1434   1.388       .  A
C1427      C1441   1.426       .  A
C1427      C1435   1.385       .  A
C1428      C1436   1.387       .  A
C1428      C1439   1.429       .  A
C1429      C1437   1.387       .  A
C1429      C1440   1.426       .  A
C1430      C1431   1.373       .  A
C1430      H1442   1.081       .  S
C1431      H1443   1.080       .  S
C1432      C1433   1.367       .  A
C1432      H1444   1.082       .  S
C1433      H1445   1.083       .  S
C1434      C1435   1.383       .  A
C1434      H1446   1.082       .  S
C1435      H1447   1.082       .  S
C1436      C1437   1.384       .  A
C1436      H1448   1.082       .  S
C1437      H1449   1.083       .  S
C1440      C2204   1.453       .  S
C1441      C2199   1.469       .  S
N1452      C1457   1.360       .  A
N1452      C1456   1.357       .  A
N1452      H1484   1.025       .  S
N1453      C1460   1.361       .  A
N1453      C1461   1.362       .  A
N1454      C1459   1.354       .  A
N1454      C1458   1.355       .  A
N1454      H1485   1.029       .  S
N1455      C1462   1.355       .  A
N1455      C1463   1.354       .  A
C1456      C1464   1.391       .  A
C1456      C1472   1.429       .  A
C1457      C1473   1.425       .  A
C1457      C1465   1.386       .  A
C1458      C1466   1.389       .  A
C1458      C1475   1.418       .  A
C1459      C1474   1.415       .  A
C1459      C1467   1.388       .  A
C1460      C1472   1.436       .  A
C1460      C1468   1.387       .  A
C1461      C1475   1.434       .  A
C1461      C1469   1.386       .  A
C1462      C1470   1.386       .  A
C1462      C1473   1.422       .  A
C1463      C1471   1.387       .  A
C1463      C1474   1.421       .  A
C1464      C1465   1.371       .  A
C1464      H1476   1.080       .  S
C1465      H1477   1.082       .  S
C1466      C1467   1.371       .  A
C1466      H1478   1.082       .  S
C1467      H1479   1.083       .  S
C1468      C1469   1.386       .  A
C1468      H1480   1.082       .  S
C1469      H1481   1.082       .  S
C1470      C1471   1.379       .  A
C1470      H1482   1.082       .  S
C1471      H1483   1.082       .  S
C1474      C2223   1.456       .  S
C1475      C2245   1.476       .  S
C1486      N1487   1.371   1_655  A
C1486      N1491   1.370   1_655  A
C1486      C1633   1.517       .  S
N1487      C1488   1.369       .  A
C1488      N1489   1.375       .  A
C1488      C1513   1.526       .  S
N1489      C1490   1.375       .  A
C1490      N1491   1.371       .  A
C1490      C1666   1.527       .  S
N1492      C1497   1.366       .  A
N1492      C1496   1.366       .  A
N1492      H1524   1.039       .  S
N1493      C1500   1.347       .  A
N1493      C1501   1.353       .  A
N1494      C1499   1.342       .  A
N1494      C1498   1.343       .  A
N1494      H1525   1.041       .  S
N1495      C1502   1.359       .  A
N1495      C1503   1.364       .  A
C1496      C1504   1.386       .  A
C1496      C1512   1.438       .  A
C1497      C1513   1.440       .  A
C1497      C1505   1.388       .  A
C1498      C1506   1.388       .  A
C1498      C1515   1.392       .  A
C1499      C1514   1.391       .  A
C1499      C1507   1.387       .  A
C1500      C1512   1.414       .  A
C1500      C1508   1.390       .  A
C1501      C1515   1.410       .  A
C1501      C1509   1.384       .  A
C1502      C1510   1.390       .  A
C1502      C1513   1.439       .  A
C1503      C1511   1.385       .  A
C1503      C1514   1.435       .  A
C1504      C1505   1.383       .  A
C1504      H1516   1.079       .  S
C1505      H1517   1.081       .  S
C1506      C1507   1.370       .  A
C1506      H1518   1.083       .  S
C1507      H1519   1.083       .  S
C1508      C1509   1.381       .  A
C1508      H1520   1.082       .  S
C1509      H1521   1.082       .  S
C1510      C1511   1.395       .  A
C1510      H1522   1.082       .  S
C1511      H1523   1.082       .  S
C1512      C1536   1.500       .  S
C1514      C2262   1.471       .  S
C1515      C2334   1.442       .  S
C1526      N1527   1.369       .  A
C1526      N1531   1.368       .  A
C1526      C1559   1.510       .  S
N1527      C1528   1.369       .  A
C1528      N1529   1.364       .  A
C1528      C1700   1.504       .  S
N1529      C1530   1.362       .  A
C1530      N1531   1.366       .  A
C1530      C1667   1.503       .  S
C1532      N1533   1.369       .  A
C1532      N1537   1.369       .  A
C1532      C1599   1.506       .  S
N1533      C1534   1.368       .  A
C1534      N1535   1.362       .  A
C1534      C1558   1.501       .  S
N1535      C1536   1.360       .  A
C1536      N1537   1.364       .  A
N1538      C1543   1.363       .  A
N1538      C1542   1.360       .  A
N1538      H1570   1.031       .  S
N1539      C1546   1.355       .  A
N1539      C1547   1.360       .  A
N1540      C1545   1.345       .  A
N1540      C1544   1.349       .  A
N1540      H1571   1.040       .  S
N1541      C1548   1.356       .  A
N1541      C1549   1.357       .  A
C1542      C1550   1.388       .  A
C1542      C1558   1.434       .  A
C1543      C1559   1.434       .  A
C1543      C1551   1.388       .  A
C1544      C1552   1.388       .  A
C1544      C1561   1.397       .  A
C1545      C1560   1.395       .  A
C1545      C1553   1.388       .  A
C1546      C1558   1.431       .  A
C1546      C1554   1.389       .  A
C1547      C1561   1.428       .  A
C1547      C1555   1.385       .  A
C1548      C1556   1.389       .  A
C1548      C1559   1.433       .  A
C1549      C1557   1.385       .  A
C1549      C1560   1.426       .  A
C1550      C1551   1.374       .  A
C1550      H1562   1.081       .  S
C1551      H1563   1.081       .  S
C1552      C1553   1.363       .  A
C1552      H1564   1.083       .  S
C1553      H1565   1.083       .  S
C1554      C1555   1.388       .  A
C1554      H1566   1.082       .  S
C1555      H1567   1.082       .  S
C1556      C1557   1.389       .  A
C1556      H1568   1.082       .  S
C1557      H1569   1.082       .  S
C1560      C2304   1.454       .  S
C1561      C2376   1.464       .  S
C1572      N1573   1.371       .  A
C1572      N1577   1.367       .  A
C1572      C1701   1.508       .  S
N1573      C1574   1.366       .  A
C1574      N1575   1.362       .  A
C1574      C1632   1.507   1_455  S
N1575      C1576   1.365       .  A
C1576      N1577   1.366       .  A
C1576      C1598   1.501       .  S
N1578      C1583   1.361       .  A
N1578      C1582   1.358       .  A
N1578      H1610   1.037       .  S
N1579      C1586   1.357       .  A
N1579      C1587   1.360       .  A
N1580      C1585   1.350       .  A
N1580      C1584   1.352       .  A
N1580      H1611   1.040       .  S
N1581      C1588   1.357       .  A
N1581      C1589   1.357       .  A
C1582      C1590   1.387       .  A
C1582      C1598   1.426       .  A
C1583      C1599   1.426       .  A
C1583      C1591   1.388       .  A
C1584      C1592   1.387       .  A
C1584      C1601   1.406       .  A
C1585      C1600   1.407       .  A
C1585      C1593   1.389       .  A
C1586      C1598   1.429       .  A
C1586      C1594   1.387       .  A
C1587      C1601   1.429       .  A
C1587      C1595   1.386       .  A
C1588      C1596   1.387       .  A
C1588      C1599   1.428       .  A
C1589      C1597   1.386       .  A
C1589      C1600   1.426       .  A
C1590      C1591   1.367       .  A
C1590      H1602   1.077       .  S
C1591      H1603   1.081       .  S
C1592      C1593   1.370       .  A
C1592      H1604   1.083       .  S
C1593      H1605   1.083       .  S
C1594      C1595   1.388       .  A
C1594      H1606   1.082       .  S
C1595      H1607   1.082       .  S
C1596      C1597   1.388       .  A
C1596      H1608   1.082       .  S
C1597      H1609   1.082       .  S
C1600      C2323   1.464       .  S
C1601      C2197   1.470       .  S
N1612      C1617   1.361       .  A
N1612      C1616   1.370       .  A
N1612      H1644   1.036       .  S
N1613      C1620   1.349       .  A
N1613      C1621   1.348       .  A
N1614      C1619   1.348       .  A
N1614      C1618   1.344       .  A
N1614      H1645   1.041       .  S
N1615      C1622   1.359       .  A
N1615      C1623   1.370       .  A
C1616      C1624   1.382   1_655  A
C1616      C1632   1.436       .  A
C1617      C1633   1.444       .  A
C1617      C1625   1.392   1_655  A
C1618      C1626   1.387       .  A
C1618      C1635   1.395       .  A
C1619      C1634   1.399       .  A
C1619      C1627   1.386       .  A
C1620      C1632   1.409       .  A
C1620      C1628   1.387       .  A
C1621      C1635   1.404       .  A
C1621      C1629   1.385       .  A
C1622      C1630   1.392       .  A
C1622      C1633   1.447       .  A
C1623      C1631   1.384       .  A
C1623      C1634   1.442       .  A
C1624      C1625   1.381       .  A
C1624      H1636   1.079       .  S
C1625      H1637   1.079       .  S
C1626      C1627   1.372       .  A
C1626      H1638   1.083       .  S
C1627      H1639   1.082       .  S
C1628      C1629   1.376       .  A
C1628      H1640   1.082       .  S
C1629      H1641   1.082       .  S
C1630      C1631   1.397       .  A
C1630      H1642   1.082       .  S
C1631      H1643   1.082       .  S
C1634      C2272   1.494       .  S
C1635      C2213   1.433       .  S
N1646      C1651   1.365       .  A
N1646      C1650   1.364       .  A
N1646      H1678   1.036       .  S
N1647      C1654   1.363       .  A
N1647      C1655   1.366       .  A
N1648      C1653   1.347       .  A
N1648      C1652   1.345       .  A
N1648      H1679   1.039       .  S
N1649      C1656   1.351       .  A
N1649      C1657   1.356       .  A
C1650      C1658   1.388       .  A
C1650      C1666   1.438       .  A
C1651      C1667   1.436       .  A
C1651      C1659   1.385       .  A
C1652      C1660   1.388       .  A
C1652      C1669   1.399       .  A
C1653      C1668   1.397       .  A
C1653      C1661   1.387       .  A
C1654      C1666   1.443       .  A
C1654      C1662   1.388       .  A
C1655      C1669   1.440       .  A
C1655      C1663   1.386       .  A
C1656      C1664   1.389       .  A
C1656      C1667   1.418       .  A
C1657      C1665   1.384       .  A
C1657      C1668   1.415       .  A
C1658      C1659   1.380       .  A
C1658      H1670   1.079       .  S
C1659      H1671   1.078       .  S
C1660      C1661   1.370       .  A
C1660      H1672   1.083       .  S
C1661      H1673   1.083       .  S
C1662      C1663   1.393       .  A
C1662      H1674   1.082       .  S
C1663      H1675   1.082       .  S
C1664      C1665   1.380       .  A
C1664      H1676   1.082       .  S
C1665      H1677   1.082       .  S
C1668      C2275   1.452       .  S
C1669      C2206   1.476       .  S
N1680      C1685   1.362       .  A
N1680      C1684   1.360       .  A
N1680      H1712   1.029       .  S
N1681      C1688   1.356       .  A
N1681      C1689   1.357       .  A
N1682      C1687   1.351       .  A
N1682      C1686   1.351       .  A
N1682      H1713   1.038       .  S
N1683      C1690   1.356       .  A
N1683      C1691   1.358       .  A
C1684      C1692   1.387       .  A
C1684      C1700   1.432       .  A
C1685      C1701   1.432       .  A
C1685      C1693   1.388       .  A
C1686      C1694   1.390       .  A
C1686      C1703   1.407       .  A
C1687      C1702   1.405       .  A
C1687      C1695   1.387       .  A
C1688      C1700   1.432       .  A
C1688      C1696   1.389       .  A
C1689      C1703   1.426       .  A
C1689      C1697   1.386       .  A
C1690      C1698   1.389       .  A
C1690      C1701   1.432       .  A
C1691      C1699   1.384       .  A
C1691      C1702   1.424       .  A
C1692      C1693   1.371       .  A
C1692      H1704   1.078       .  S
C1693      H1705   1.082       .  S
C1694      C1695   1.366       .  A
C1694      H1706   1.082       .  S
C1695      H1707   1.082       .  S
C1696      C1697   1.388       .  A
C1696      H1708   1.082       .  S
C1697      H1709   1.082       .  S
C1698      C1699   1.387       .  A
C1698      H1710   1.082       .  S
C1699      H1711   1.082       .  S
C1702      C2285   1.466       .  S
C1703      C2295   1.462       .  S
C1714      N1715   1.367       .  A
C1714      N1719   1.367       .  A
C1714      C1740   1.507       .  S
N1715      C1716   1.367       .  A
C1716      N1717   1.367       .  A
C1716      C1929   1.513       .  S
N1717      C1718   1.369       .  A
C1718      N1719   1.365       .  A
C1718      C1861   1.507       .  S
N1720      C1725   1.359       .  A
N1720      C1724   1.362       .  A
N1720      H1752   1.037       .  S
N1721      C1728   1.356       .  A
N1721      C1729   1.358       .  A
N1722      C1727   1.351       .  A
N1722      C1726   1.349       .  A
N1722      H1753   1.041       .  S
N1723      C1730   1.356       .  A
N1723      C1731   1.360       .  A
C1724      C1732   1.387       .  A
C1724      C1740   1.429       .  A
C1725      C1741   1.429       .  A
C1725      C1733   1.389       .  A
C1726      C1734   1.387       .  A
C1726      C1743   1.400       .  A
C1727      C1742   1.403       .  A
C1727      C1735   1.388       .  A
C1728      C1740   1.427       .  A
C1728      C1736   1.388       .  A
C1729      C1743   1.425       .  A
C1729      C1737   1.386       .  A
C1730      C1738   1.389       .  A
C1730      C1741   1.431       .  A
C1731      C1739   1.384       .  A
C1731      C1742   1.427       .  A
C1732      C1733   1.375       .  A
C1732      H1744   1.082       .  S
C1733      H1745   1.081       .  S
C1734      C1735   1.365       .  A
C1734      H1746   1.082       .  S
C1735      H1747   1.082       .  S
C1736      C1737   1.387       .  A
C1736      H1748   1.082       .  S
C1737      H1749   1.082       .  S
C1738      C1739   1.388       .  A
C1738      H1750   1.082       .  S
C1739      H1751   1.080       .  S
C1741      C1754   1.502       .  S
C1742      C2374   1.471       .  S
C1743      C2364   1.462       .  S
C1754      N1755   1.363       .  A
C1754      N1759   1.369       .  A
N1755      C1756   1.362       .  A
C1756      N1757   1.363       .  A
C1756      C1826   1.497       .  S
N1757      C1758   1.365       .  A
C1758      N1759   1.369       .  A
C1758      C1895   1.504       .  S
C1760      N1761   1.366       .  A
C1760      N1765   1.365       .  A
C1760      C1894   1.497       .  S
N1761      C1762   1.362       .  A
C1762      N1763   1.359       .  A
C1762      C1792   1.494   1_655  S
N1763      C1764   1.361       .  A
C1764      N1765   1.366       .  A
C1764      C1860   1.493       .  S
C1766      N1767   1.378       .  A
C1766      N1771   1.376       .  A
C1766      C1793   1.535   1_655  S
N1767      C1768   1.377       .  A
C1768      N1769   1.375       .  A
C1768      C1928   1.536       .  S
N1769      C1770   1.373       .  A
C1770      N1771   1.372       .  A
C1770      C1827   1.536       .  S
N1772      C1777   1.366       .  A
N1772      C1776   1.364       .  A
N1772      H1804   1.038       .  S
N1773      C1780   1.347       .  A
N1773      C1781   1.356       .  A
N1774      C1779   1.342       .  A
N1774      C1778   1.349       .  A
N1774      H1805   1.041       .  S
N1775      C1782   1.364       .  A
N1775      C1783   1.365       .  A
C1776      C1784   1.385   1_455  A
C1776      C1792   1.434       .  A
C1777      C1793   1.439       .  A
C1777      C1785   1.390   1_455  A
C1778      C1786   1.384       .  A
C1778      C1795   1.395       .  A
C1779      C1794   1.395       .  A
C1779      C1787   1.390       .  A
C1780      C1792   1.415       .  A
C1780      C1788   1.390       .  A
C1781      C1795   1.412       .  A
C1781      C1789   1.382       .  A
C1782      C1790   1.389       .  A
C1782      C1793   1.446       .  A
C1783      C1791   1.387       .  A
C1783      C1794   1.442       .  A
C1784      C1785   1.381       .  A
C1784      H1796   1.078       .  S
C1785      H1797   1.081       .  S
C1786      C1787   1.370       .  A
C1786      H1798   1.082       .  S
C1787      H1799   1.083       .  S
C1788      C1789   1.378       .  A
C1788      H1800   1.082       .  S
C1789      H1801   1.082       .  S
C1790      C1791   1.397       .  A
C1790      H1802   1.082       .  S
C1791      H1803   1.082       .  S
C1794      C2320   1.473       .  S
C1795      C2331   1.456       .  S
N1806      C1811   1.367       .  A
N1806      C1810   1.364       .  A
N1806      H1838   1.036       .  S
N1807      C1814   1.351       .  A
N1807      C1815   1.358       .  A
N1808      C1813   1.345       .  A
N1808      C1812   1.351       .  A
N1808      H1839   1.040       .  S
N1809      C1816   1.362       .  A
N1809      C1817   1.364       .  A
C1810      C1818   1.387       .  A
C1810      C1826   1.436       .  A
C1811      C1827   1.443       .  A
C1811      C1819   1.387       .  A
C1812      C1820   1.384       .  A
C1812      C1829   1.399       .  A
C1813      C1828   1.404       .  A
C1813      C1821   1.390       .  A
C1814      C1826   1.421       .  A
C1814      C1822   1.390       .  A
C1815      C1829   1.418       .  A
C1815      C1823   1.384       .  A
C1816      C1824   1.388       .  A
C1816      C1827   1.441       .  A
C1817      C1825   1.385       .  A
C1817      C1828   1.437       .  A
C1818      C1819   1.383       .  A
C1818      H1830   1.083       .  S
C1819      H1831   1.076       .  S
C1820      C1821   1.371       .  A
C1820      H1832   1.083       .  S
C1821      H1833   1.082       .  S
C1822      C1823   1.380       .  A
C1822      H1834   1.083       .  S
C1823      H1835   1.082       .  S
C1824      C1825   1.394       .  A
C1824      H1836   1.082       .  S
C1825      H1837   1.082       .  S
C1828      C2195   1.476       .  S
C1829      C2210   1.464       .  S
N1840      C1845   1.362       .  A
N1840      C1844   1.358       .  A
N1840      H1872   1.036       .  S
N1841      C1848   1.353       .  A
N1841      C1849   1.357       .  A
N1842      C1847   1.346       .  A
N1842      C1846   1.350       .  A
N1842      H1873   1.041       .  S
N1843      C1850   1.354       .  A
N1843      C1851   1.355       .  A
C1844      C1852   1.388       .  A
C1844      C1860   1.427       .  A
C1845      C1861   1.429       .  A
C1845      C1853   1.386       .  A
C1846      C1854   1.386       .  A
C1846      C1863   1.401       .  A
C1847      C1862   1.400       .  A
C1847      C1855   1.387       .  A
C1848      C1860   1.425       .  A
C1848      C1856   1.389       .  A
C1849      C1863   1.422       .  A
C1849      C1857   1.385       .  A
C1850      C1858   1.388       .  A
C1850      C1861   1.427       .  A
C1851      C1859   1.385       .  A
C1851      C1862   1.421       .  A
C1852      C1853   1.372       .  A
C1852      H1864   1.082       .  S
C1853      H1865   1.078       .  S
C1854      C1855   1.371       .  A
C1854      H1866   1.083       .  S
C1855      H1867   1.083       .  S
C1856      C1857   1.386       .  A
C1856      H1868   1.082       .  S
C1857      H1869   1.082       .  S
C1858      C1859   1.389       .  A
C1858      H1870   1.082       .  S
C1859      H1871   1.082       .  S
C1862      C2229   1.457       .  S
C1863      C2291   1.464       .  S
N1874      C1879   1.362       .  A
N1874      C1878   1.358       .  A
N1874      H1906   1.027       .  S
N1875      C1882   1.353       .  A
N1875      C1883   1.358       .  A
N1876      C1881   1.346       .  A
N1876      C1880   1.348       .  A
N1876      H1907   1.035       .  S
N1877      C1884   1.356       .  A
N1877      C1885   1.353       .  A
C1878      C1886   1.389       .  A
C1878      C1894   1.431       .  A
C1879      C1895   1.427       .  A
C1879      C1887   1.385       .  A
C1880      C1888   1.387       .  A
C1880      C1897   1.400       .  A
C1881      C1896   1.400       .  A
C1881      C1889   1.390       .  A
C1882      C1894   1.430       .  A
C1882      C1890   1.389       .  A
C1883      C1897   1.424       .  A
C1883      C1891   1.384       .  A
C1884      C1892   1.387       .  A
C1884      C1895   1.424       .  A
C1885      C1893   1.387       .  A
C1885      C1896   1.420       .  A
C1886      C1887   1.372       .  A
C1886      H1898   1.079       .  S
C1887      H1899   1.082       .  S
C1888      C1889   1.372       .  A
C1888      H1900   1.083       .  S
C1889      H1901   1.083       .  S
C1890      C1891   1.389       .  A
C1890      H1902   1.082       .  S
C1891      H1903   1.082       .  S
C1892      C1893   1.383       .  A
C1892      H1904   1.082       .  S
C1893      H1905   1.082       .  S
C1896      C2264   1.443       .  S
C1897      C2255   1.465       .  S
N1908      C1913   1.370       .  A
N1908      C1912   1.365       .  A
N1908      H1940   1.033       .  S
N1909      C1916   1.364       .  A
N1909      C1917   1.371       .  A
N1910      C1915   1.346       .  A
N1910      C1914   1.347       .  A
N1910      H1941   1.043       .  S
N1911      C1918   1.352       .  A
N1911      C1919   1.353       .  A
C1912      C1920   1.390       .  A
C1912      C1928   1.446       .  A
C1913      C1929   1.441       .  A
C1913      C1921   1.384       .  A
C1914      C1922   1.388       .  A
C1914      C1931   1.398       .  A
C1915      C1930   1.393       .  A
C1915      C1923   1.386       .  A
C1916      C1928   1.455       .  A
C1916      C1924   1.391       .  A
C1917      C1931   1.448       .  A
C1917      C1925   1.384       .  A
C1918      C1926   1.389       .  A
C1918      C1929   1.423       .  A
C1919      C1927   1.385       .  A
C1919      C1930   1.415       .  A
C1920      C1921   1.379       .  A
C1920      H1932   1.079       .  S
C1921      H1933   1.080       .  S
C1922      C1923   1.370       .  A
C1922      H1934   1.083       .  S
C1923      H1935   1.083       .  S
C1924      C1925   1.400       .  A
C1924      H1936   1.082       .  S
C1925      H1937   1.082       .  S
C1926      C1927   1.383       .  A
C1926      H1938   1.082       .  S
C1927      H1939   1.082       .  S
C1930      C2238   1.449       .  S
C1931      C2208   1.499       .  S
O1942      C1958   1.273       .  A
O1942     Zn1948   1.980       .  S
C1943      O1959   1.278       .  A
C1943      O1956   1.280       .  A
C1943      C2338   1.461       .  S
O1944      C1957   1.286       .  A
O1944     Cd1951   2.221       .  S
O1945      C1963   1.264       .  A
O1945     Cd1954   2.011       .  S
O1946      C1960   1.271       .  A
O1946     Cd1950   2.034       .  S
O1947      C1958   1.274       .  A
O1947     Cd1950   2.087   1_455  S
Zn1948     O1959   2.075   1_455  S
Zn1948     O1961   1.952       .  S
Zn1948     O1953   1.924   1_455  S
O1949      C1960   1.274       .  A
O1949     Cd1954   2.052       .  S
Cd1950     O1952   1.986   1_655  S
Cd1950     O1953   1.992       .  S
Cd1951     O1955   2.217       .  S
Cd1951     O1964   2.181   1_455  S
Cd1951     O1953   1.999   1_455  S
O1952      C1962   1.260       .  A
O1953     Cd1954   1.999       .  S
Cd1954     O1956   2.106       .  S
O1955      C1962   1.299       .  A
C1957      O1961   1.245       .  A
C1957      C2194   1.472       .  S
C1958      C2217   1.448       .  S
C1960      C2196   1.476       .  S
C1962      C2198   1.451       .  S
C1963      O1964   1.291       .  A
C1963      C2200   1.451       .  S
C1965      N1966   1.367       .  A
C1965      N1970   1.377       .  A
C1965      C2112   1.520   1_554  S
N1966      C1967   1.366       .  A
C1967      N1968   1.375       .  A
C1967      C2180   1.519   1_455  S
N1968      C1969   1.374       .  A
C1969      N1970   1.374       .  A
C1969      C1992   1.535       .  S
N1971      C1976   1.364       .  A
N1971      C1975   1.368       .  A
N1971      H2003   1.040       .  S
N1972      C1979   1.349       .  A
N1972      C1980   1.354       .  A
N1973      C1978   1.346       .  A
N1973      C1977   1.347       .  A
N1973      H2004   1.043       .  S
N1974      C1981   1.362       .  A
N1974      C1982   1.366       .  A
C1975      C1983   1.385       .  A
C1975      C1991   1.436       .  A
C1976      C1992   1.438       .  A
C1976      C1984   1.385       .  A
C1977      C1985   1.385       .  A
C1977      C1994   1.396       .  A
C1978      C1993   1.400       .  A
C1978      C1986   1.390       .  A
C1979      C1991   1.418       .  A
C1979      C1987   1.390       .  A
C1980      C1994   1.412       .  A
C1980      C1988   1.383       .  A
C1981      C1989   1.390       .  A
C1981      C1992   1.444       .  A
C1982      C1990   1.385       .  A
C1982      C1993   1.440       .  A
C1983      C1984   1.382       .  A
C1983      H1995   1.081       .  S
C1984      H1996   1.074       .  S
C1985      C1986   1.370       .  A
C1985      H1997   1.083       .  S
C1986      H1998   1.083       .  S
C1987      C1988   1.383       .  A
C1987      H1999   1.082       .  S
C1988      H2000   1.083       .  S
C1989      C1990   1.397       .  A
C1989      H2001   1.082       .  S
C1990      H2002   1.081       .  S
C1991      C2011   1.508       .  S
C1993      C2284   1.481       .  S
C1994      C2325   1.453       .  S
C2005      N2006   1.370       .  A
C2005      N2010   1.358       .  A
C2005      C2038   1.497       .  S
N2006      C2007   1.368       .  A
C2007      N2008   1.363       .  A
C2007      C2146   1.506       .  S
N2008      C2009   1.363       .  A
C2009      N2010   1.359       .  A
C2009      C2179   1.485   1_455  S
C2011      N2012   1.366       .  A
C2011      N2016   1.369       .  A
N2012      C2013   1.365       .  A
C2013      N2014   1.368       .  A
C2013      C2077   1.505       .  S
N2014      C2015   1.367       .  A
C2015      N2016   1.369       .  A
C2015      C2037   1.512       .  S
N2017      C2022   1.361       .  A
N2017      C2021   1.362       .  A
N2017      H2049   1.033       .  S
N2018      C2025   1.356       .  A
N2018      C2026   1.358       .  A
N2019      C2024   1.349       .  A
N2019      C2023   1.346       .  A
N2019      H2050   1.043       .  S
N2020      C2027   1.351       .  A
N2020      C2028   1.357       .  A
C2021      C2029   1.386       .  A
C2021      C2037   1.432       .  A
C2022      C2038   1.431       .  A
C2022      C2030   1.389       .  A
C2023      C2031   1.389       .  A
C2023      C2040   1.398       .  A
C2024      C2039   1.396       .  A
C2024      C2032   1.385       .  A
C2025      C2037   1.432       .  A
C2025      C2033   1.389       .  A
C2026      C2040   1.426       .  A
C2026      C2034   1.385       .  A
C2027      C2035   1.390       .  A
C2027      C2038   1.427       .  A
C2028      C2036   1.384       .  A
C2028      C2039   1.421       .  A
C2029      C2030   1.374       .  A
C2029      H2041   1.077       .  S
C2030      H2042   1.082       .  S
C2031      C2032   1.368       .  A
C2031      H2043   1.082       .  S
C2032      H2044   1.082       .  S
C2033      C2034   1.391       .  A
C2033      H2045   1.082       .  S
C2034      H2046   1.082       .  S
C2035      C2036   1.389       .  A
C2035      H2047   1.082       .  S
C2036      H2048   1.082       .  S
C2039      C2202   1.465       .  S
C2040      C2313   1.462       .  S
C2051      N2052   1.371       .  A
C2051      N2056   1.364       .  A
C2051      C2078   1.506       .  S
N2052      C2053   1.370       .  A
C2053      N2054   1.367       .  A
C2053      C2111   1.518   1_554  S
N2054      C2055   1.369       .  A
C2055      N2056   1.363       .  A
C2055      C2145   1.505       .  S
N2057      C2062   1.361       .  A
N2057      C2061   1.362       .  A
N2057      H2089   1.031       .  S
N2058      C2065   1.354       .  A
N2058      C2066   1.355       .  A
N2059      C2064   1.349       .  A
N2059      C2063   1.349       .  A
N2059      H2090   1.037       .  S
N2060      C2067   1.357       .  A
N2060      C2068   1.360       .  A
C2061      C2069   1.385       .  A
C2061      C2077   1.430       .  A
C2062      C2078   1.429       .  A
C2062      C2070   1.387       .  A
C2063      C2071   1.387       .  A
C2063      C2080   1.402       .  A
C2064      C2079   1.403       .  A
C2064      C2072   1.389       .  A
C2065      C2077   1.426       .  A
C2065      C2073   1.388       .  A
C2066      C2080   1.419       .  A
C2066      C2074   1.385       .  A
C2067      C2075   1.388       .  A
C2067      C2078   1.431       .  A
C2068      C2076   1.385       .  A
C2068      C2079   1.428       .  A
C2069      C2070   1.371       .  A
C2069      H2081   1.076       .  S
C2070      H2082   1.082       .  S
C2071      C2072   1.367       .  A
C2071      H2083   1.083       .  S
C2072      H2084   1.083       .  S
C2073      C2074   1.387       .  A
C2073      H2085   1.082       .  S
C2074      H2086   1.082       .  S
C2075      C2076   1.389       .  A
C2075      H2087   1.082       .  S
C2076      H2088   1.082       .  S
C2079      C2243   1.467       .  S
C2080      C2362   1.456       .  S
N2091      C2096   1.363       .  A
N2091      C2095   1.369       .  A
N2091      H2123   1.036       .  S
N2092      C2099   1.356       .  A
N2092      C2100   1.356       .  A
N2093      C2098   1.352       .  A
N2093      C2097   1.350       .  A
N2093      H2124   1.042       .  S
N2094      C2101   1.361       .  A
N2094      C2102   1.367       .  A
C2095      C2103   1.385   1_556  A
C2095      C2111   1.439       .  A
C2096      C2112   1.445       .  A
C2096      C2104   1.392   1_556  A
C2097      C2105   1.387       .  A
C2097      C2114   1.403       .  A
C2098      C2113   1.404       .  A
C2098      C2106   1.387       .  A
C2099      C2111   1.426       .  A
C2099      C2107   1.388       .  A
C2100      C2114   1.420       .  A
C2100      C2108   1.385       .  A
C2101      C2109   1.391       .  A
C2101      C2112   1.445       .  A
C2102      C2110   1.384       .  A
C2102      C2113   1.438       .  A
C2103      C2104   1.383       .  A
C2103      H2115   1.082       .  S
C2104      H2116   1.082       .  S
C2105      C2106   1.367       .  A
C2105      H2117   1.083       .  S
C2106      H2118   1.082       .  S
C2107      C2108   1.382       .  A
C2107      H2119   1.082       .  S
C2108      H2120   1.082       .  S
C2109      C2110   1.392       .  A
C2109      H2121   1.082       .  S
C2110      H2122   1.082       .  S
C2113      C2193   1.487       .  S
C2114      C2274   1.455       .  S
N2125      C2130   1.362       .  A
N2125      C2129   1.361       .  A
N2125      H2157   1.034   1_545  S
N2126      C2133   1.355       .  A
N2126      C2134   1.360       .  A
N2127      C2132   1.348       .  A
N2127      C2131   1.348       .  A
N2127      H2158   1.040       .  S
N2128      C2135   1.356       .  A
N2128      C2136   1.357       .  A
C2129      C2137   1.391       .  A
C2129      C2145   1.434       .  A
C2130      C2146   1.430       .  A
C2130      C2138   1.386       .  A
C2131      C2139   1.388       .  A
C2131      C2148   1.400       .  A
C2132      C2147   1.399       .  A
C2132      C2140   1.387       .  A
C2133      C2145   1.433   1_565  A
C2133      C2141   1.390       .  A
C2134      C2148   1.427       .  A
C2134      C2142   1.384       .  A
C2135      C2143   1.388       .  A
C2135      C2146   1.427   1_565  A
C2136      C2144   1.385       .  A
C2136      C2147   1.422       .  A
C2137      C2138   1.376       .  A
C2137      H2149   1.081       .  S
C2138      H2150   1.079       .  S
C2139      C2140   1.367       .  A
C2139      H2151   1.082       .  S
C2140      H2152   1.083       .  S
C2141      C2142   1.390       .  A
C2141      H2153   1.082       .  S
C2142      H2154   1.082       .  S
C2143      C2144   1.386       .  A
C2143      H2155   1.082       .  S
C2144      H2156   1.082       .  S
C2147      C2254   1.457       .  S
C2148      C2294   1.469       .  S
N2159      C2164   1.363       .  A
N2159      C2163   1.360       .  A
N2159      H2191   1.037       .  S
N2160      C2167   1.345       .  A
N2160      C2168   1.352       .  A
N2161      C2166   1.341       .  A
N2161      C2165   1.348       .  A
N2161      H2192   1.044       .  S
N2162      C2169   1.356       .  A
N2162      C2170   1.358       .  A
C2163      C2171   1.386   1_655  A
C2163      C2179   1.434       .  A
C2164      C2180   1.438       .  A
C2164      C2172   1.388   1_655  A
C2165      C2173   1.386       .  A
C2165      C2182   1.392       .  A
C2166      C2181   1.390       .  A
C2166      C2174   1.388       .  A
C2167      C2179   1.418       .  A
C2167      C2175   1.391       .  A
C2168      C2182   1.409       .  A
C2168      C2176   1.382       .  A
C2169      C2177   1.389       .  A
C2169      C2180   1.438       .  A
C2170      C2178   1.386       .  A
C2170      C2181   1.432       .  A
C2171      C2172   1.377       .  A
C2171      H2183   1.080       .  S
C2172      H2184   1.079       .  S
C2173      C2174   1.365       .  A
C2173      H2185   1.083       .  S
C2174      H2186   1.082       .  S
C2175      C2176   1.382       .  A
C2175      H2187   1.082       .  S
C2176      H2188   1.082       .  S
C2177      C2178   1.395       .  A
C2177      H2189   1.082       .  S
C2178      H2190   1.079       .  S
C2181      C2221   1.466       .  S
C2182      C2232   1.446       .  S
C2193      C2194   1.233       .  T
C2195      C2196   1.229       .  T
C2197      C2198   1.221       .  T
C2199      C2200   1.218       .  T
C2201      C2202   1.218       .  T
C2203      C2204   1.210       .  T
C2205      C2206   1.228       .  T
C2207      C2208   1.244       .  T
C2209      C2210   1.216       .  T
C2211      C2212   1.204       .  T
C2213      C2214   1.198       .  T
C2215      C2216   1.215       .  T
C2217      C2218   1.215       .  T
C2219      C2220   1.208       .  T
C2221      C2222   1.225       .  T
C2223      C2224   1.210       .  T
C2225      C2226   1.227       .  T
C2227      C2228   1.212       .  T
C2229      C2230   1.215       .  T
C2231      C2232   1.207       .  T
C2233      C2234   1.211       .  T
C2235      C2236   1.205       .  T
C2237      C2238   1.208       .  T
C2239      C2240   1.223       .  T
C2241      C2242   1.207       .  T
C2243      C2244   1.221       .  T
C2245      C2246   1.224       .  T
C2247      C2248   1.239       .  T
C2249      C2250   1.216       .  T
C2251      C2252   1.222       .  T
C2253      C2254   1.213       .  T
C2255      C2256   1.219       .  T
C2257      C2258   1.214       .  T
C2259      C2260   1.228       .  T
C2261      C2262   1.226       .  T
C2263      C2264   1.203       .  T
C2265      C2266   1.223       .  T
C2267      C2268   1.221       .  T
C2269      C2270   1.220       .  T
C2271      C2272   1.240       .  T
C2273      C2274   1.211       .  T
C2275      C2276   1.210       .  T
C2277      C2278   1.210       .  T
C2279      C2280   1.204       .  T
C2281      C2282   1.209       .  T
C2283      C2284   1.233       .  T
C2285      C2286   1.220       .  T
C2287      C2288   1.211       .  T
C2289      C2290   1.209       .  T
C2291      C2292   1.217       .  T
C2293      C2294   1.223       .  T
C2295      C2296   1.217       .  T
C2297      C2298   1.215       .  T
C2299      C2300   1.225       .  T
C2301      C2302   1.214       .  T
C2303      C2304   1.212       .  T
C2305      C2306   1.243       .  T
C2307      C2308   1.217       .  T
C2309      C2310   1.222       .  T
C2311      C2312   1.210       .  T
C2313      C2314   1.220       .  T
C2315      C2316   1.237       .  T
C2317      C2318   1.211       .  T
C2319      C2320   1.228       .  T
C2321      C2322   1.215       .  T
C2323      C2324   1.218       .  T
C2325      C2326   1.211       .  T
C2327      C2328   1.207       .  T
C2329      C2330   1.215       .  T
C2331      C2332   1.212       .  T
C2333      C2334   1.204       .  T
C2335      C2336   1.213       .  T
C2337      C2338   1.222       .  T
C2339      C2340   1.220       .  T
C2341      C2342   1.212       .  T
C2343      C2344   1.222       .  T
C2345      C2346   1.210       .  T
C2347      C2348   1.226       .  T
C2349      C2350   1.224       .  T
C2351      C2352   1.210       .  T
C2353      C2354   1.211       .  T
C2355      C2356   1.236       .  T
C2357      C2358   1.210       .  T
C2359      C2360   1.223       .  T
C2361      C2362   1.213       .  T
C2363      C2364   1.216       .  T
C2365      C2366   1.234       .  T
C2367      C2368   1.209       .  T
C2369      C2370   1.227       .  T
C2371      C2372   1.214       .  T
C2373      C2374   1.223       .  T
C2375      C2376   1.218       .  T
C2377      C2378   1.235       .  T
C2379      C2380   1.223       .  T
C2381      C2382   1.220       .  T
C2383      C2384   1.230       .  T
