geometry optimzed in LAMMPS
_audit_creation_date              2020-11-30 
_audit_creation_method            'lammps2cif' 
_symmetry_space_group_name_H-M    'P1' 
_symmetry_Int_Tables_number       1 
_symmetry_cell_setting            triclinic 
loop_ 
_symmetry_equiv_pos_as_xyz 
  x,y,z 
_cell_length_a                    23.31878605613748 
_cell_length_b                    23.335882691132056 
_cell_length_c                    23.305197852555644 
_cell_angle_alpha                 88.45035760488406 
_cell_angle_beta                  92.34720981207889 
_cell_angle_gamma                 90.08460850990667 
loop_ 
_atom_site_label 
_atom_site_type_symbol 
_atom_site_fract_x 
_atom_site_fract_y 
_atom_site_fract_z 
_atom_site_charge 
O1          O  0.28232389  0.58916389  0.00204628    -0.73080
O2          O  0.28831878  0.40849859  0.99432348    -0.74060
O3          O  0.30657348  0.50526164  0.91987619    -0.62680
O4          O  0.29204896  0.49478964  0.07697395    -0.71090
O5          O  0.19758135  0.50242105  0.07570207    -0.70640
O6          O  0.21493638  0.49516620  0.89497976    -0.61900
O7          O  0.19419782  0.41939459  0.98744467    -0.74400
O8          O  0.19009293  0.57755640  0.97871294    -0.73180
Cu9        Cu  0.29597642  0.49957315  0.99837200     1.04560
Cu10       Cu  0.19550588  0.49850240  0.98353467     1.04330
C11         C  0.23083456  0.60939476  0.99322504     0.93120
C12         C  0.23693845  0.38710792  0.99088097     0.92260
C13         C  0.26824498  0.49951012  0.88141112     0.84400
C14         C  0.24700969  0.49964827  0.10350863     0.90680
C15         C  0.35285999  0.49813728  0.65773753    -0.02620
O16         O  0.70180436  0.48834313  0.92549702    -0.73080
O17         O  0.70015802  0.48942797  0.08724433    -0.74060
O18         O  0.71445761  0.57999896  0.00380925    -0.62680
O19         O  0.70939138  0.40056898  0.00918870    -0.71090
O20         O  0.80392146  0.40866459  0.02028818    -0.70640
O21         O  0.80877730  0.56819777  0.00553874    -0.61900
O22         O  0.79455409  0.49202250  0.10218604    -0.74400
O23         O  0.79640321  0.48127732  0.92242100    -0.73180
Cu24       Cu  0.70279315  0.48985130  0.00640978     1.04560
Cu25       Cu  0.80439392  0.48764532  0.01283887     1.04330
C26         C  0.74591463  0.48249972  0.89711077     0.93120
C27         C  0.74324754  0.49080140  0.12131480     0.92260
C28         C  0.76599595  0.60079021  0.00300675     0.84400
C29         C  0.75990402  0.37816492  0.01602976     0.90680
C30         C  0.66882108  0.48763908  0.65721292    -0.02620
O31         O  0.08557641  0.50618666  0.69019563    -0.73080
O32         O  0.92704298  0.50483057  0.69858220    -0.74060
O33         O  0.00741539  0.59355447  0.70961081    -0.62680
O34         O  0.00827494  0.41351573  0.70433457    -0.71090
O35         O  0.02275322  0.41798522  0.79861097    -0.70640
O36         O  0.01276882  0.57761480  0.80392950    -0.61900
O37         O  0.92529119  0.49411897  0.79318971    -0.74400
O38         O  0.10520704  0.50507842  0.78401466    -0.73180
Cu39       Cu  0.00675171  0.50464559  0.69710261     1.04560
Cu40       Cu  0.01676964  0.49841814  0.79864587     1.04330
C41         C  0.12141872  0.50697012  0.73150392     0.93120
C42         C  0.89915589  0.49941565  0.74308049     0.92260
C43         C  0.01088849  0.61172767  0.76161691     0.84400
C44         C  0.01681447  0.38877231  0.75449532     0.90680
O45         O  0.99536393  0.57711008  0.19889306    -0.73080
O46         O  0.97210558  0.42025113  0.19194518    -0.74060
O47         O  0.89493314  0.51051066  0.21705292    -0.62680
O48         O  0.07552455  0.48867501  0.20314386    -0.71090
O49         O  0.07345474  0.47564275  0.29732659    -0.70640
O50         O  0.91800737  0.50216804  0.30966537    -0.61900
O51         O  0.98269761  0.40123845  0.28533860    -0.74400
O52         O  0.00891045  0.58112326  0.29302572    -0.73180
Cu53       Cu  0.98385957  0.49904176  0.19904853     1.04560
Cu54       Cu  0.99581564  0.48974414  0.29987679     1.04330
C55         C  0.00486527  0.60608002  0.24244032     0.93120
C56         C  0.97620758  0.38457626  0.23282740     0.92260
C57         C  0.88048126  0.50953188  0.27036202     0.84400
C58         C  0.10153176  0.48020030  0.25305723     0.90680
C59         C  0.65707835  0.50729096  0.35020992    -0.02620
C60         C  0.33055483  0.50926316  0.33952724    -0.02620
O61         O  0.50474515  0.78880962  0.90664262    -0.73080
O62         O  0.50967267  0.80032021  0.08555088    -0.74060
O63         O  0.58715462  0.80112271  0.99575924    -0.62680
O64         O  0.42855637  0.81046218  0.99389677    -0.71090
O65         O  0.41322417  0.71772987  0.00884830    -0.70640
O66         O  0.59169692  0.70614037  0.99943688    -0.61900
O67         O  0.51054174  0.70529732  0.08454633    -0.74400
O68         O  0.49265247  0.69583965  0.92464135    -0.73180
Cu69       Cu  0.50773069  0.80373196  0.99508281     1.04560
Cu70       Cu  0.50180763  0.70257749  0.00455979     1.04330
C71         C  0.49735201  0.73697767  0.88948669     0.93120
C72         C  0.51079709  0.75076880  0.11187212     0.92260
C73         C  0.61608042  0.75596066  0.99755114     0.84400
C74         C  0.39456002  0.76970177  0.00136586     0.90680
C75         C  0.51324464  0.65224752  0.66707708    -0.02620
O76         O  0.48505791  0.91188475  0.70344247    -0.73080
O77         O  0.50636559  0.07232295  0.70388562    -0.74060
O78         O  0.58559285  0.98090048  0.71547159    -0.62680
O79         O  0.40605939  0.00161363  0.71380614    -0.71090
O80         O  0.41790876  0.99380886  0.80856124    -0.70640
O81         O  0.57547103  0.98330334  0.80897618    -0.61900
O82         O  0.50346787  0.07923250  0.79835894    -0.74400
O83         O  0.49233456  0.90029521  0.79829098    -0.73180
Cu84       Cu  0.49548074  0.99184262  0.70536221     1.04560
Cu85       Cu  0.49722421  0.98912410  0.80687643     1.04330
C86         C  0.48804976  0.87967291  0.74741864     0.93120
C87         C  0.50751009  0.10257257  0.74767832     0.92260
C88         C  0.60743173  0.98008649  0.76742515     0.84400
C89         C  0.38560034  0.99982631  0.76467944     0.90680
O90         O  0.57995710  0.19422979  0.01617628    -0.73080
O91         O  0.41981681  0.19830557  0.00501296    -0.74060
O92         O  0.50262979  0.20656783  0.91789643    -0.62680
O93         O  0.49742182  0.21224945  0.09834508    -0.71090
O94         O  0.50654476  0.30566847  0.08114434    -0.70640
O95         O  0.49937924  0.30114737  0.92231509    -0.61900
O96         O  0.41185867  0.29286526  0.00379952    -0.74400
O97         O  0.59292148  0.28765377  0.00311767    -0.73180
Cu98       Cu  0.49989992  0.19910443  0.00948097     1.04560
Cu99       Cu  0.50278223  0.30043126  0.00240003     1.04330
C100        C  0.61299451  0.23607902  0.01059080     0.93120
C101        C  0.38900429  0.24214299  0.00486983     0.92260
C102        C  0.50185200  0.25715389  0.89315262     0.84400
C103        C  0.50120374  0.26438840  0.11565130     0.90680
C104        C  0.50130746  0.33577204  0.65936925    -0.02620
O105        O  0.42057766  0.01019046  0.29099389    -0.73080
O106        O  0.60150572  0.01202090  0.28148433    -0.74060
O107        O  0.51001492  0.09051750  0.29742036    -0.62680
O108        O  0.51431295  0.93015964  0.30170881    -0.71090
O109        O  0.50580127  0.92055526  0.20750949    -0.70640
O110        O  0.49709812  0.10149312  0.20309012    -0.61900
O111        O  0.58053341  0.01589483  0.18808819    -0.74400
O112        O  0.42252995  0.00856189  0.19610090    -0.73180
Cu113      Cu  0.51205959  0.01068762  0.29664277     1.04560
Cu114      Cu  0.50147250  0.01154977  0.19518541     1.04330
C115        C  0.39471038  0.01043947  0.24059707     0.93120
C116        C  0.61724313  0.01380372  0.22871024     0.92260
C117        C  0.50179703  0.12249708  0.25394162     0.84400
C118        C  0.51099605  0.89848472  0.25923095     0.90680
C119        C  0.49254916  0.66797925  0.34420147    -0.02620
C120        C  0.49702822  0.35388105  0.33428643    -0.02620
O121        O  0.19186361  0.00656267  0.57508747    -0.73080
O122        O  0.20575034  0.99656812  0.41584621    -0.74060
O123        O  0.21125486  0.91161474  0.50280502    -0.62680
O124        O  0.21009495  0.09239452  0.48934697    -0.71090
O125        O  0.30435790  0.08348143  0.50202581    -0.70640
O126        O  0.30495887  0.92367103  0.51575515    -0.61900
O127        O  0.30084636  0.99812358  0.41801696    -0.74400
O128        O  0.28518161  0.00785678  0.59678368    -0.73180
Cu129      Cu  0.20109956  0.00183743  0.49548807     1.04560
Cu130      Cu  0.30230109  0.00338350  0.50866247     1.04330
C131        C  0.23239573  0.00749234  0.61203880     0.93120
C132        C  0.25178900  0.99542409  0.39006028     0.92260
C133        C  0.26255364  0.89089662  0.51104341     0.84400
C134        C  0.26100405  0.11466543  0.49373773     0.90680
C135        C  0.34731498  0.66417241  0.50685592    -0.02620
O136        O  0.69681292  0.91653413  0.49742064    -0.73080
O137        O  0.69697593  0.07513804  0.47962263    -0.74060
O138        O  0.70485838  0.98787197  0.39831508    -0.62680
O139        O  0.71442483  0.00293003  0.57943995    -0.71090
O140        O  0.80774609  0.00060113  0.56731696    -0.70640
O141        O  0.79947985  0.98796794  0.40966932    -0.61900
O142        O  0.79148657  0.08514758  0.48198731    -0.74400
O143        O  0.79080939  0.90429785  0.49577248    -0.73180
Cu144      Cu  0.69963843  0.99565478  0.48870127     1.04560
Cu145      Cu  0.80089429  0.99452141  0.48851089     1.04330
C146        C  0.73926955  0.88382788  0.49828756     0.93120
C147        C  0.74025187  0.10681372  0.48046507     0.92260
C148        C  0.75543604  0.98600015  0.37738205     0.84400
C149        C  0.76694767  0.00275722  0.60022430     0.90680
C150        C  0.65545024  0.65884264  0.50319895    -0.02620
O151        O  0.09050591  0.78980197  0.51195763    -0.73080
O152        O  0.91036792  0.78646002  0.49618721    -0.74060
O153        O  0.99569559  0.79931640  0.58210316    -0.62680
O154        O  0.00542669  0.80087603  0.42360064    -0.71090
O155        O  0.00996146  0.70653127  0.41596278    -0.70640
O156        O  0.99520765  0.70468717  0.59448593    -0.61900
O157        O  0.92179939  0.69222151  0.49566036    -0.74400
O158        O  0.08198599  0.69517372  0.51692291    -0.73180
Cu159      Cu  0.00031890  0.79769252  0.50329776     1.04560
Cu160      Cu  0.00214695  0.69599926  0.50572816     1.04330
C161        C  0.11290947  0.73907175  0.51684928     0.93120
C162        C  0.88941765  0.73506088  0.49440034     0.92260
C163        C  0.99407575  0.75582234  0.61443807     0.84400
C164        C  0.01063802  0.75786165  0.39335798     0.90680
O165        O  0.99784014  0.29178479  0.40745469    -0.73080
O166        O  0.99933929  0.29035712  0.58783673    -0.74060
O167        O  0.07846161  0.30681145  0.49926008    -0.62680
O168        O  0.91784181  0.29893295  0.49548849    -0.71090
O169        O  0.91308455  0.20414958  0.50277999    -0.70640
O170        O  0.09256744  0.21307093  0.49575416    -0.61900
O171        O  0.00979557  0.19655476  0.57974011    -0.74400
O172        O  0.99760139  0.19728088  0.41969206    -0.73180
Cu173      Cu  0.99827683  0.30063876  0.49748129     1.04560
Cu174      Cu  0.00348054  0.19921320  0.49962091     1.04330
C175        C  0.99705676  0.24073098  0.38698221     0.93120
C176        C  0.00495799  0.23928888  0.61047264     0.92260
C177        C  0.11188323  0.26507446  0.49672615     0.84400
C178        C  0.88865145  0.25401391  0.49947506     0.90680
C179        C  0.65415386  0.33152662  0.49791733    -0.02620
C180        C  0.34445145  0.34451614  0.49101617    -0.02620
C181        C  0.99856803  0.15667463  0.15724945    -0.02620
C182        C  0.83950242  0.99225640  0.14896648    -0.02620
C183        C  0.00553664  0.84061389  0.16107654    -0.02620
C184        C  0.16298078  0.00346046  0.15789222    -0.02620
C185        C  0.00457638  0.83788956  0.84072648    -0.02620
C186        C  0.15724923  0.00265155  0.84276259    -0.02620
C187        C  0.99579049  0.15589086  0.83962359    -0.02620
C188        C  0.84359026  0.99297847  0.83905187    -0.02620
C189        C  0.15382904  0.16410124  0.99869515    -0.02620
C190        C  0.15917885  0.84282854  0.00451747    -0.02620
C191        C  0.83964391  0.15142911  0.99402237    -0.02620
C192        C  0.84782261  0.83220373  0.99572815    -0.02620
C193        C  0.87343158  0.12197160  0.04791108     0.02990
C194        C  0.92570443  0.14184967  0.07296905    -0.13160
C195        C  0.94775416  0.12166920  0.12832781     0.00490
C196        C  0.92390534  0.07013278  0.15124266    -0.11680
C197        C  0.87413674  0.04508296  0.12470635     0.02990
C198        C  0.85302869  0.07000519  0.07136123    -0.11100
H199        H  0.94780797  0.17618190  0.05096688     0.08580
H200        H  0.94415262  0.04951524  0.18888498     0.06110
H201        H  0.81747344  0.04971510  0.04858272     0.05960
C202        C  0.05804646  0.87184927  0.13327175     0.02990
C203        C  0.08016548  0.84957697  0.08224661    -0.13160
C204        C  0.13108573  0.87041039  0.05814626     0.00490
C205        C  0.15329301  0.92298052  0.08027153    -0.11680
C206        C  0.13291947  0.94842762  0.13074713     0.02990
C207        C  0.08294668  0.92342242  0.15440130    -0.11100
H208        H  0.05669807  0.81577779  0.06104136     0.08580
H209        H  0.18886298  0.94322214  0.05921977     0.06110
H210        H  0.06392127  0.94384894  0.19014557     0.05960
C211        C  0.04939543  0.12550539  0.87109360     0.02990
C212        C  0.07585966  0.07612928  0.85011303    -0.13160
C213        C  0.12980918  0.05498387  0.87276352     0.00490
C214        C  0.15271113  0.07975870  0.92401099    -0.11680
C215        C  0.12762599  0.12945934  0.94681293     0.02990
C216        C  0.07390835  0.14816980  0.92190305    -0.11100
H217        H  0.05546400  0.05544430  0.81361295     0.08580
H218        H  0.19014092  0.06081289  0.94583859     0.06110
H219        H  0.05201749  0.18351992  0.94066118     0.05960
C220        C  0.87521230  0.86498796  0.04805952     0.02990
C221        C  0.85070497  0.91580896  0.06875822    -0.13160
C222        C  0.86872419  0.93873621  0.12189820     0.00490
C223        C  0.92026001  0.91508753  0.14891247    -0.11680
C224        C  0.94977896  0.86673266  0.12776687     0.02990
C225        C  0.92784687  0.84524371  0.07484392    -0.11100
H226        H  0.81714417  0.93687786  0.04333257     0.08580
H227        H  0.93737942  0.93437278  0.18769662     0.06110
H228        H  0.95057556  0.81107632  0.05508976     0.05960
C229        C  0.05532742  0.87020916  0.87179313     0.02990
C230        C  0.07670494  0.92290682  0.84867067    -0.13160
C231        C  0.12745613  0.94890818  0.87146276     0.00490
C232        C  0.14968742  0.92687134  0.92559616    -0.11680
C233        C  0.13008838  0.87453407  0.95032611     0.02990
C234        C  0.07974724  0.85003344  0.92465712    -0.11100
H235        H  0.05444895  0.94258489  0.81167770     0.08580
H236        H  0.18320605  0.95054718  0.94791742     0.06110
H237        H  0.06013092  0.81326520  0.94525066     0.05960
C238        C  0.86861850  0.04761061  0.87003603     0.02990
C239        C  0.91881542  0.07453125  0.84795683    -0.13160
C240        C  0.94130786  0.12762522  0.86774546     0.00490
C241        C  0.91654987  0.14926778  0.91717237    -0.11680
C242        C  0.86677604  0.12406483  0.94130011     0.02990
C243        C  0.84647142  0.07149112  0.91945090    -0.11100
H244        H  0.93969525  0.05473963  0.81290240     0.08580
H245        H  0.93568431  0.18665507  0.93668715     0.06110
H246        H  0.81429708  0.04942262  0.94244860     0.05960
C247        C  0.95104458  0.86467322  0.86714881     0.02990
C248        C  0.92882205  0.91799455  0.84630830    -0.13160
C249        C  0.87789375  0.94030454  0.86685416     0.00490
C250        C  0.85749649  0.91359389  0.91822354    -0.11680
C251        C  0.87778142  0.86043617  0.94179072     0.02990
C252        C  0.92757916  0.83899110  0.91760123    -0.11100
H253        H  0.95242843  0.94199496  0.81503636     0.08580
H254        H  0.82360405  0.93358921  0.93981751     0.06110
H255        H  0.94860573  0.80217140  0.93818956     0.05960
C256        C  0.05240966  0.13170959  0.12720005     0.02990
C257        C  0.07842675  0.07953919  0.14933382    -0.13160
C258        C  0.13032320  0.05733579  0.12832272     0.00490
C259        C  0.15072166  0.08493129  0.07809231    -0.11680
C260        C  0.12583338  0.13615529  0.05302810     0.02990
C261        C  0.07442795  0.15600892  0.07608069    -0.11100
H262        H  0.05944915  0.05744188  0.18531752     0.08580
H263        H  0.18757715  0.06674112  0.05851177     0.06110
H264        H  0.05010174  0.18884515  0.05318933     0.05960
C265        C  0.37266940  0.37212731  0.54704601     0.02990
C266        C  0.35259163  0.42413549  0.57083152    -0.13160
C267        C  0.37504517  0.44427069  0.62459473     0.00490
C268        C  0.42585803  0.41692944  0.64736651    -0.11680
C269        C  0.44823324  0.36555275  0.62612630     0.02990
C270        C  0.42328151  0.34655642  0.57355968    -0.11100
H271        H  0.31901724  0.44811188  0.54764090     0.08580
H272        H  0.44779340  0.43516435  0.68432577     0.06110
H273        H  0.44295782  0.31072500  0.55343093     0.05960
C274        C  0.55167717  0.37721358  0.36817661     0.02990
C275        C  0.57748892  0.42992159  0.35093115    -0.13160
C276        C  0.62875880  0.45157333  0.37772036     0.00490
C277        C  0.64820247  0.42256472  0.42922309    -0.11680
C278        C  0.62614930  0.36792166  0.44652242     0.02990
C279        C  0.57507452  0.34903398  0.41828389    -0.11100
H280        H  0.55858238  0.45333252  0.31415223     0.08580
H281        H  0.67983407  0.44202945  0.45668292     0.06110
H282        H  0.55422393  0.31088243  0.43464504     0.05960
C283        C  0.35782117  0.56463182  0.36965834     0.02990
C284        C  0.40808886  0.59053567  0.34611660    -0.13160
C285        C  0.43721000  0.63867773  0.37058537     0.00490
C286        C  0.41818138  0.65650478  0.42437729    -0.11680
C287        C  0.36807856  0.63442138  0.45019153     0.02990
C288        C  0.34167314  0.58511127  0.42432565    -0.11100
H289        H  0.42500066  0.57277676  0.30787487     0.08580
H290        H  0.44200714  0.69010305  0.44583362     0.06110
H291        H  0.30894301  0.56252547  0.44734511     0.05960
C292        C  0.37428057  0.37732968  0.44002642     0.02990
C293        C  0.34915215  0.42868021  0.41661246    -0.13160
C294        C  0.36777405  0.45692703  0.36570237     0.00490
C295        C  0.41871241  0.43536706  0.34170280    -0.11680
C296        C  0.44608909  0.38425927  0.36390098     0.02990
C297        C  0.42608751  0.35990788  0.41630585    -0.11100
H298        H  0.31222365  0.44560085  0.43709079     0.08580
H299        H  0.43614997  0.45728267  0.30480966     0.06110
H300        H  0.45091844  0.32650662  0.43801783     0.05960
C301        C  0.38544401  0.55026209  0.63029602     0.02990
C302        C  0.43878721  0.57065710  0.65160724    -0.13160
C303        C  0.46039547  0.62454667  0.63395621     0.00490
C304        C  0.43501415  0.65072860  0.58289203    -0.11680
C305        C  0.38155023  0.63257087  0.55870366     0.02990
C306        C  0.35950254  0.58041729  0.58178665    -0.11100
H307        H  0.46433494  0.54500018  0.68144304     0.08580
H308        H  0.45804809  0.68439579  0.56185056     0.06110
H309        H  0.32031403  0.56353902  0.56231633     0.05960
C310        C  0.55665004  0.36310605  0.63056984     0.02990
C311        C  0.58515929  0.41297663  0.65144604    -0.13160
C312        C  0.63702333  0.43485318  0.62825683     0.00490
C313        C  0.65581345  0.40914156  0.57765101    -0.11680
C314        C  0.62967136  0.35905920  0.55406318     0.02990
C315        C  0.57754744  0.34026657  0.57888486    -0.11100
H316        H  0.56721493  0.43493170  0.68685022     0.08580
H317        H  0.69095473  0.42884890  0.55575559     0.06110
H318        H  0.55309063  0.30678906  0.55804026     0.05960
C319        C  0.54582453  0.63442196  0.37412559     0.02990
C320        C  0.57162737  0.65398473  0.42612152    -0.13160
C321        C  0.62321775  0.63002583  0.45121216     0.00490
C322        C  0.64343985  0.57963950  0.42812303    -0.11680
C323        C  0.62240116  0.55881550  0.37464189     0.02990
C324        C  0.56998588  0.58365765  0.35109089    -0.11100
H325        H  0.55237575  0.69008103  0.44619157     0.08580
H326        H  0.67886584  0.55804584  0.45095991     0.06110
H327        H  0.54848792  0.56452806  0.31435348     0.05960
C328        C  0.63209327  0.62772516  0.55878065     0.02990
C329        C  0.65607602  0.57420170  0.58073852    -0.13160
C330        C  0.63685890  0.54486247  0.63152609     0.00490
C331        C  0.58920358  0.57039655  0.65778669    -0.11680
C332        C  0.56565885  0.62469532  0.63852094     0.02990
C333        C  0.58449341  0.64870462  0.58649029    -0.11100
H334        H  0.69116577  0.55567044  0.55860518     0.08580
H335        H  0.57150712  0.54897673  0.69481793     0.06110
H336        H  0.55972053  0.68261442  0.56638423     0.05960
C337        C  0.19537353  0.29009749  0.44068297    -0.26450
C338        C  0.17196953  0.28317886  0.49417473    -0.14530
C339        C  0.19558151  0.31548285  0.53935374     0.36100
C340        C  0.24422024  0.34967748  0.53177220    -0.25900
C341        C  0.27648330  0.34743691  0.48171141    -0.15140
C342        C  0.24710829  0.31987963  0.43340608     0.37190
N343        N  0.26917056  0.31609758  0.37714628    -0.88910
H344        H  0.17381513  0.27082740  0.40382764     0.18300
H345        H  0.26353606  0.36474886  0.57078661     0.18290
N346        N  0.17401464  0.30963088  0.59570947    -0.88420
H347        H  0.27333341  0.27295308  0.36718033     0.35670
H348        H  0.30931265  0.33354225  0.37475777     0.40770
H349        H  0.17737233  0.26651747  0.60814663     0.40390
H350        H  0.13076788  0.32131786  0.59464730     0.35280
C351        C  0.04605960  0.15810011  0.74517059    -0.26450
C352        C  0.99374575  0.15038686  0.77253883    -0.14530
C353        C  0.94449224  0.16918245  0.73926776     0.36100
C354        C  0.94978281  0.20582348  0.69091272    -0.25900
C355        C  0.00318547  0.22254954  0.67140008    -0.15140
C356        C  0.05170140  0.19509070  0.69745980     0.37190
N357        N  0.10794144  0.20564832  0.67736907    -0.89390
H358        H  0.08449442  0.14440737  0.76698061     0.18300
H359        H  0.91145806  0.21792893  0.66635253     0.18290
N360        N  0.88856256  0.15074920  0.75318846    -0.88420
H361        H  0.11539613  0.24968287  0.67941527     0.35670
H362        H  0.10951693  0.19311944  0.63476780     0.40770
H363        H  0.87257355  0.12838804  0.71776183     0.40390
H364        H  0.86273809  0.18689843  0.75580233     0.35280
C365        C  0.96576878  0.14931765  0.26097694    -0.26450
C366        C  0.01196385  0.15916317  0.22478189    -0.14530
C367        C  0.05635753  0.19746066  0.24839106     0.36100
C368        C  0.04730574  0.22831612  0.29823236    -0.25900
C369        C  0.99615467  0.22517725  0.32629386    -0.15140
C370        C  0.95496869  0.18475565  0.30736546     0.37190
N371        N  0.90049359  0.17973506  0.33387410    -0.89390
H372        H  0.93140296  0.12248990  0.24723026     0.18300
H373        H  0.08112975  0.25589390  0.31510435     0.18290
N374        N  0.10717266  0.21482334  0.21941336    -0.88420
H375        H  0.89617022  0.20914127  0.36637700     0.35670
H376        H  0.86892992  0.19135495  0.30276027     0.40770
H377        H  0.11513410  0.19105201  0.18392260     0.40390
H378        H  0.14288580  0.21132565  0.24787691     0.35280
C379        C  0.80399569  0.29287547  0.44863228    -0.26450
C380        C  0.82688336  0.26627384  0.49891940    -0.14530
C381        C  0.80017754  0.27657580  0.55048770     0.36100
C382        C  0.74853577  0.30778701  0.54972049    -0.25900
C383        C  0.72172341  0.33141681  0.49881975    -0.15140
C384        C  0.75321567  0.32533886  0.44753568     0.37190
N385        N  0.73215634  0.34707311  0.39259366    -0.89390
H386        H  0.82691878  0.28961754  0.40926107     0.18300
H387        H  0.72503409  0.30718519  0.58875720     0.18290
N388        N  0.82597480  0.25585769  0.60392251    -0.88420
H389        H  0.72614906  0.31315118  0.36480101     0.35670
H390        H  0.76500756  0.37085040  0.37467110     0.40770
H391        H  0.79855694  0.26184881  0.63763858     0.40390
H392        H  0.86167341  0.28195995  0.61212437     0.35280
C393        C  0.04971669  0.78209907  0.69823800    -0.26450
C394        C  0.99540842  0.77163849  0.67430816    -0.14530
C395        C  0.94943174  0.80388475  0.69365828     0.36100
C396        C  0.95778955  0.84075997  0.73996932    -0.25900
C397        C  0.00984977  0.84141312  0.77341203    -0.15140
C398        C  0.05839336  0.81580642  0.74657660     0.37190
N399        N  0.11699067  0.81824965  0.76782697    -0.89390
H400        H  0.08675696  0.76393642  0.67857323     0.18300
H401        H  0.91956611  0.85898985  0.75594224     0.18290
N402        N  0.89270366  0.79756455  0.66849444    -0.88420
H403        H  0.13301376  0.77655259  0.77253841     0.35670
H404        H  0.12221159  0.83616114  0.80743029     0.40770
H405        H  0.88122720  0.75433621  0.67224331     0.40390
H406        H  0.89308745  0.80892860  0.62484617     0.35280
C407        C  0.96050691  0.77850162  0.30280501    -0.26450
C408        C  0.01317805  0.77395600  0.33226387    -0.14530
C409        C  0.05722766  0.81122829  0.31472963     0.36100
C410        C  0.05034157  0.84523676  0.26391733    -0.25900
C411        C  0.99984775  0.84350468  0.22833948    -0.15140
C412        C  0.95214659  0.81538106  0.25436429     0.37190
N413        N  0.89481060  0.82300297  0.23183666    -0.89390
H414        H  0.92407079  0.75631622  0.32059985     0.18300
H415        H  0.08758977  0.86711984  0.24965827     0.18290
N416        N  0.10918111  0.81529019  0.34927135    -0.88420
H417        H  0.86641888  0.80130005  0.25834207     0.35670
H418        H  0.89070850  0.80250657  0.19319981     0.40770
H419        H  0.11436000  0.85797460  0.36102616     0.40390
H420        H  0.14346664  0.80467420  0.32413596     0.35280
C421        C  0.75439063  0.65381696  0.45704842    -0.26450
C422        C  0.72306790  0.65684070  0.50771987    -0.14530
C423        C  0.75174251  0.68442916  0.55509055     0.36100
C424        C  0.80285281  0.71526755  0.54751268    -0.25900
C425        C  0.82843936  0.71889633  0.49452608    -0.15140
C426        C  0.80544950  0.68531294  0.44967452     0.37190
N427        N  0.83264776  0.68599099  0.39534589    -0.89390
H428        H  0.73516520  0.63502098  0.41956300     0.18300
H429        H  0.82324270  0.73592447  0.58403198     0.18290
N430        N  0.72678830  0.68608737  0.61015420    -0.88420
H431        H  0.80751574  0.66455132  0.36473387     0.35670
H432        H  0.87110535  0.66316827  0.40055379     0.40770
H433        H  0.75795478  0.67193463  0.64068998     0.40390
H434        H  0.71916237  0.72881363  0.61946357     0.35280
C435        C  0.69856594  0.18102492  0.53577944    -0.26450
C436        C  0.72374601  0.16736001  0.48442602    -0.14530
C437        C  0.70341552  0.19661298  0.43454192     0.36100
C438        C  0.66292237  0.24169987  0.43762732    -0.25900
C439        C  0.64635371  0.26398586  0.49092641    -0.15140
C440        C  0.65813638  0.22573375  0.53880843     0.37190
N441        N  0.63018373  0.23252836  0.59126281    -0.89390
H442        H  0.70715895  0.15335508  0.57330905     0.18300
H443        H  0.65432698  0.26624641  0.39895550     0.18290
N444        N  0.72521388  0.18091004  0.38061801    -0.88420
H445        H  0.64857234  0.20590800  0.62380593     0.35670
H446        H  0.58847928  0.21722519  0.58371171     0.40770
H447        H  0.74403924  0.21676275  0.36135047     0.40390
H448        H  0.69103583  0.16762000  0.35423992     0.35280
C449        C  0.68175081  0.80887127  0.54191241    -0.26450
C450        C  0.72119137  0.82337366  0.49934680    -0.14530
C451        C  0.71460804  0.79499754  0.44674718     0.36100
C452        C  0.67672507  0.74827492  0.44195244    -0.25900
C453        C  0.64907390  0.72552404  0.49097316    -0.15140
C454        C  0.63997345  0.76579943  0.53316028     0.37190
N455        N  0.58186127  0.77769953  0.54762697    -0.89390
H456        H  0.67612402  0.83851723  0.57629389     0.18300
H457        H  0.67798062  0.72352868  0.40339264     0.18290
N458        N  0.74543750  0.81303590  0.39753137    -0.88420
H459        H  0.55640489  0.77961799  0.50959822     0.35670
H460        H  0.57866977  0.81843645  0.56489139     0.40770
H461        H  0.78930106  0.81212902  0.40875536     0.40390
H462        H  0.73393653  0.85535378  0.38703182     0.35280
C463        C  0.77210046  0.04695257  0.69701800    -0.26450
C464        C  0.78739940  0.00326208  0.66131320    -0.14530
C465        C  0.83635557  0.96953183  0.67805558     0.36100
C466        C  0.86455318  0.97615076  0.73184417    -0.25900
C467        C  0.84217111  0.01140275  0.77302621    -0.15140
C468        C  0.79906917  0.05199769  0.75195427     0.37190
N469        N  0.77736660  0.09418554  0.78872174    -0.89390
H470        H  0.73871639  0.07695197  0.68272563     0.18300
H471        H  0.89955860  0.94848635  0.74233760     0.18290
N472        N  0.85729215  0.92776679  0.63978668    -0.88420
H473        H  0.73321208  0.08766961  0.79065686     0.35670
H474        H  0.78150950  0.13439732  0.76870754     0.40770
H475        H  0.82694348  0.89482012  0.63716972     0.40390
H476        H  0.89607248  0.91015363  0.65558651     0.35280
C477        C  0.76838886  0.93690747  0.28474756    -0.26450
C478        C  0.77081355  0.98666526  0.31670189    -0.14530
C479        C  0.81046554  0.02931972  0.30113655     0.36100
C480        C  0.84393071  0.02388812  0.25319787    -0.25900
C481        C  0.83597404  0.97871869  0.21518829    -0.15140
C482        C  0.79999856  0.93214322  0.23449493     0.37190
N483        N  0.78949929  0.88291047  0.19986342    -0.89390
H484        H  0.74149059  0.90165938  0.29826049     0.18300
H485        H  0.86677513  0.06118380  0.24057926     0.18290
N486        N  0.81641033  0.07948032  0.33485241    -0.88420
H487        H  0.74647347  0.88222877  0.18620844     0.35670
H488        H  0.79229035  0.84672448  0.22682158     0.40770
H489        H  0.80743502  0.11516149  0.30803501     0.40390
H490        H  0.85894125  0.08131003  0.35058123     0.35280
C491        C  0.20644242  0.71765673  0.56732478    -0.26450
C492        C  0.17396036  0.72433675  0.51604051    -0.14530
C493        C  0.19061874  0.69358108  0.46869850     0.36100
C494        C  0.24229886  0.66281648  0.47113538    -0.25900
C495        C  0.28090326  0.66250077  0.51903715    -0.15140
C496        C  0.25941519  0.68776843  0.56969564     0.37190
N497        N  0.29190094  0.68571428  0.62318766    -0.89390
H498        H  0.19020740  0.73561871  0.60587457     0.18300
H499        H  0.25904079  0.65329776  0.43095021     0.18290
N500        N  0.15513006  0.69561708  0.41684939    -0.88420
H501        H  0.26922146  0.70482189  0.65541755     0.35670
H502        H  0.32890546  0.70993908  0.61976244     0.40770
H503        H  0.13830911  0.65482283  0.40983672     0.40390
H504        H  0.18005146  0.70782940  0.38234237     0.35280
C505        C  0.31794269  0.25385585  0.54703338    -0.26450
C506        C  0.34755239  0.27684713  0.49935147    -0.14530
C507        C  0.35279393  0.23830489  0.45414490     0.36100
C508        C  0.31328981  0.19254943  0.44767851    -0.25900
C509        C  0.27654907  0.17591200  0.49158854    -0.15140
C510        C  0.28316809  0.20448121  0.54378058     0.37190
N511        N  0.25508357  0.18289316  0.59372820    -0.89390
H512        H  0.31546457  0.27909397  0.58504478     0.18300
H513        H  0.31731263  0.16429675  0.41185057     0.18290
N514        N  0.40520502  0.23608182  0.42479817    -0.88420
H515        H  0.26373798  0.20915991  0.62867852     0.35670
H516        H  0.27350008  0.14319998  0.60508963     0.40770
H517        H  0.40587072  0.19975186  0.39955231     0.40390
H518        H  0.43829351  0.22936663  0.45593320     0.35280
C519        C  0.21102574  0.05815092  0.70027601    -0.26450
C520        C  0.21234223  0.00690644  0.67117732    -0.14530
C521        C  0.17547098  0.96214563  0.68864649     0.36100
C522        C  0.14445905  0.96696610  0.73895637    -0.25900
C523        C  0.15182702  0.01395882  0.77545669    -0.15140
C524        C  0.18047821  0.06317054  0.75074638     0.37190
N525        N  0.18490870  0.11675503  0.77959405    -0.89390
H526        H  0.23388289  0.09503676  0.68378798     0.18300
H527        H  0.12167221  0.92961862  0.75266076     0.18290
N528        N  0.17178891  0.91027916  0.65646220    -0.88420
H529        H  0.22804808  0.12643623  0.78768445     0.35670
H530        H  0.17224579  0.14901056  0.75001500     0.40770
H531        H  0.14963719  0.91949037  0.61747362     0.40390
H532        H  0.14699700  0.87946419  0.67724169     0.35280
C533        C  0.22157679  0.04779375  0.30481794    -0.26450
C534        C  0.24121705  0.99551540  0.32748975    -0.14530
C535        C  0.21908492  0.94556442  0.30176613     0.36100
C536        C  0.17896735  0.94942767  0.25457792    -0.25900
C537        C  0.16440415  0.00238371  0.22620900    -0.15140
C538        C  0.18292345  0.05164862  0.25756822     0.37190
N539        N  0.16236286  0.10737397  0.24441611    -0.89390
H540        H  0.23264608  0.08669778  0.32733642     0.18300
H541        H  0.16812641  0.90992660  0.23407230     0.18290
N542        N  0.23907521  0.89004880  0.32101386    -0.88420
H543        H  0.11819157  0.10594459  0.24856724     0.35670
H544        H  0.17430894  0.12037127  0.20370958     0.40770
H545        H  0.27384380  0.89449237  0.35031226     0.40390
H546        H  0.25605924  0.86975201  0.28611955     0.35280
C547        C  0.32482217  0.81449990  0.55156453    -0.26450
C548        C  0.28017454  0.83008949  0.51153439    -0.14530
C549        C  0.27695995  0.80088792  0.45994071     0.36100
C550        C  0.31491522  0.75515775  0.45143119    -0.25900
C551        C  0.35149267  0.73179424  0.49665269    -0.15140
C552        C  0.36449884  0.77098111  0.54039160     0.37190
N553        N  0.42245052  0.77699140  0.56182904    -0.89390
H554        H  0.33458054  0.84274929  0.58681723     0.18300
H555        H  0.30812951  0.73130188  0.41276144     0.18290
N556        N  0.23472970  0.81742798  0.41637057    -0.88420
H557        H  0.42707866  0.81364771  0.58644414     0.35670
H558        H  0.44800481  0.78420572  0.52650277     0.40770
H559        H  0.19427059  0.81180366  0.43328235     0.40390
H560        H  0.23685939  0.79085984  0.38114543     0.35280
C561        C  0.44516700  0.20647391  0.27870073    -0.26450
C562        C  0.49859444  0.18299122  0.26924006    -0.14530
C563        C  0.54620891  0.20657130  0.29878864     0.36100
C564        C  0.54055018  0.25442188  0.33248910    -0.25900
C565        C  0.48923595  0.28614960  0.33421755    -0.15140
C566        C  0.43911726  0.25782825  0.30846413     0.37190
N567        N  0.38118204  0.27874899  0.31025591    -0.89390
H568        H  0.40724498  0.18514344  0.26195891     0.18300
H569        H  0.57994649  0.27254898  0.34725898     0.18290
N570        N  0.60231048  0.18373449  0.29320957    -0.88420
H571        H  0.36148285  0.27656016  0.26928365     0.35670
H572        H  0.37970819  0.32161771  0.31892256     0.40770
H573        H  0.61024540  0.18313765  0.24944164     0.40390
H574        H  0.60281813  0.14189157  0.31012096     0.35280
C575        C  0.68305906  0.97036678  0.16420001    -0.26450
C576        C  0.67602795  0.01084410  0.20738957    -0.14530
C577        C  0.71231693  0.05925464  0.20616110     0.36100
C578        C  0.75822518  0.06102607  0.16871169    -0.25900
C579        C  0.77439472  0.01132668  0.13886898    -0.15140
C580        C  0.72876995  0.97391974  0.12656029     0.37190
N581        N  0.72068477  0.95317242  0.06981117    -0.89390
H582        H  0.64938432  0.93920244  0.15577656     0.18300
H583        H  0.78851503  0.09586537  0.17405551     0.18290
N584        N  0.70691767  0.10521615  0.24501842    -0.88420
H585        H  0.71750512  0.98922145  0.04243998     0.35670
H586        H  0.68138255  0.93181488  0.06511189     0.40770
H587        H  0.67668938  0.09531425  0.27538665     0.40390
H588        H  0.69322005  0.14138568  0.22104220     0.35280
C589        C  0.31132105  0.95886983  0.20767460    -0.26450
C590        C  0.33290202  0.01106294  0.22603764    -0.14530
C591        C  0.30906299  0.06085456  0.19880416     0.36100
C592        C  0.25992050  0.05710423  0.16103501    -0.25900
C593        C  0.23065116  0.00469466  0.15160250    -0.15140
C594        C  0.26377577  0.95547718  0.16896988     0.37190
N595        N  0.24840031  0.90042793  0.15001982    -0.89390
H596        H  0.33416411  0.91974068  0.22038195     0.18300
H597        H  0.24128044  0.09612472  0.14418858     0.18290
N598        N  0.33599935  0.11510817  0.20899102    -0.88420
H599        H  0.24181420  0.87468532  0.18642841     0.35670
H600        H  0.28426975  0.88504358  0.12985111     0.40770
H601        H  0.32865916  0.12497251  0.25155403     0.40390
H602        H  0.31697841  0.14745786  0.18305975     0.35280
C603        C  0.45527433  0.81665752  0.29039950    -0.26450
C604        C  0.50945913  0.83708035  0.27685967    -0.14530
C605        C  0.55713416  0.81223764  0.30842778     0.36100
C606        C  0.54941365  0.76371307  0.34533118    -0.25900
C607        C  0.49531538  0.73607938  0.35089078    -0.15140
C608        C  0.44811233  0.77090256  0.32977112     0.37190
N609        N  0.39328267  0.76642653  0.35326385    -0.89390
H610        H  0.41760355  0.84098419  0.27562786     0.18300
H611        H  0.58787323  0.74287742  0.36192633     0.18290
N612        N  0.61407370  0.83569075  0.30477963    -0.88420
H613        H  0.40079724  0.77253781  0.39697551     0.35670
H614        H  0.37553281  0.72640776  0.34555467     0.40770
H615        H  0.61543414  0.86823814  0.27320332     0.40390
H616        H  0.64114834  0.80337370  0.29167377     0.35280
C617        C  0.55146643  0.30104305  0.19895771    -0.26450
C618        C  0.49910990  0.28445944  0.17405892    -0.14530
C619        C  0.45006773  0.31527370  0.18865561     0.36100
C620        C  0.45354511  0.35569841  0.23238054    -0.25900
C621        C  0.50369833  0.36240288  0.26753162    -0.15140
C622        C  0.55472170  0.34082769  0.24307300     0.37190
N623        N  0.61060656  0.35511398  0.26498795    -0.89390
H624        H  0.59090299  0.28467880  0.18240741     0.18300
H625        H  0.41398801  0.37179928  0.24588440     0.18290
N626        N  0.39531443  0.30422223  0.16112591    -0.88420
H627        H  0.63266956  0.37011091  0.22951972     0.35670
H628        H  0.63162578  0.31764854  0.27958239     0.40770
H629        H  0.38663288  0.26043903  0.16608608     0.40390
H630        H  0.39741188  0.31425699  0.11732493     0.35280
C631        C  0.68515080  0.18879280  0.95806745    -0.26450
C632        C  0.67296773  0.21745241  0.00788507    -0.14530
C633        C  0.70459360  0.20127288  0.05850005     0.36100
C634        C  0.75332599  0.16537361  0.05550288    -0.25900
C635        C  0.77270767  0.14500530  0.00242775    -0.15140
C636        C  0.73148905  0.15062469  0.95579016     0.37190
N637        N  0.73397012  0.11689216  0.90613588    -0.89390
H638        H  0.65551064  0.19245087  0.92106142     0.18300
H639        H  0.78047248  0.16021226  0.09382472     0.18290
N640        N  0.68671343  0.22090129  0.11288405    -0.88420
H641        H  0.73270277  0.14388091  0.86998686     0.35670
H642        H  0.69459442  0.09600972  0.90309860     0.40770
H643        H  0.68817742  0.26567677  0.11154759     0.40390
H644        H  0.71568257  0.20728050  0.14582648     0.35280
C645        C  0.29736588  0.22610550  0.05383250    -0.26450
C646        C  0.32750366  0.22723915  0.00295632    -0.14530
C647        C  0.30729542  0.19186737  0.95800167     0.36100
C648        C  0.25628752  0.16087837  0.96310814    -0.25900
C649        C  0.22089707  0.16549898  0.01019579    -0.15140
C650        C  0.24468443  0.19639456  0.05805192     0.37190
N651        N  0.21291849  0.20278546  0.10901358    -0.89390
H652        H  0.31447016  0.24867874  0.09062885     0.18300
H653        H  0.23877646  0.14449621  0.92416704     0.18290
N654        N  0.33654268  0.18804675  0.90493235    -0.88420
H655        H  0.23865533  0.18952196  0.14438738     0.35670
H656        H  0.20568484  0.24622321  0.11511264     0.40770
H657        H  0.37101979  0.21643606  0.90302511     0.40390
H658        H  0.30798608  0.20108781  0.87136294     0.35280
C659        C  0.45083815  0.28313079  0.80305757    -0.26450
C660        C  0.50386478  0.27207776  0.83124819    -0.14530
C661        C  0.55143790  0.30441058  0.81200857     0.36100
C662        C  0.54587931  0.33991545  0.76215553    -0.25900
C663        C  0.49541467  0.34191530  0.72671441    -0.15140
C664        C  0.44530377  0.31969608  0.75378751     0.37190
N665        N  0.38853441  0.33530775  0.73303803    -0.89390
H666        H  0.41247747  0.26636584  0.82215935     0.18300
H667        H  0.58382542  0.35981912  0.74749552     0.18290
N668        N  0.60662560  0.30205240  0.84191032    -0.88420
H669        H  0.35757216  0.31930027  0.76047647     0.35670
H670        H  0.37935355  0.31695182  0.69375759     0.40770
H671        H  0.60710733  0.27244746  0.87624769     0.40390
H672        H  0.61488528  0.34239788  0.85887739     0.35280
C673        C  0.45853029  0.18324779  0.70271386    -0.26450
C674        C  0.50802783  0.16443274  0.73310044    -0.14530
C675        C  0.55953492  0.19421244  0.72273928     0.36100
C676        C  0.55804599  0.24492654  0.68799623    -0.25900
C677        C  0.50656244  0.26796924  0.66125358    -0.15140
C678        C  0.45815365  0.23124293  0.66510243     0.37190
N679        N  0.40913830  0.23876976  0.62797553    -0.89390
H680        H  0.42015736  0.15687149  0.70385126     0.18300
H681        H  0.59704380  0.27011932  0.68734325     0.18290
N682        N  0.61406373  0.17445668  0.74663047    -0.88420
H683        H  0.40824242  0.20404548  0.60048570     0.35670
H684        H  0.37291307  0.23463037  0.65276529     0.40770
H685        H  0.60929460  0.13790090  0.77285879     0.40390
H686        H  0.63066591  0.20625337  0.77334258     0.35280
C687        C  0.68202572  0.00102256  0.84092643    -0.26450
C688        C  0.66861172  0.97690382  0.78677572    -0.14530
C689        C  0.70832027  0.93857695  0.76572545     0.36100
C690        C  0.76179885  0.93226315  0.79488306    -0.25900
C691        C  0.77968010  0.97052013  0.83940891    -0.15140
C692        C  0.73545222  0.99429449  0.86953000     0.37190
N693        N  0.73652152  0.98862368  0.93094667    -0.89390
H694        H  0.64893230  0.02176442  0.86410845     0.18300
H695        H  0.79288145  0.90418441  0.77685134     0.18290
N696        N  0.69634226  0.90650772  0.71520665    -0.88420
H697        H  0.72578668  0.94611264  0.94109050     0.35670
H698        H  0.70411072  0.01319023  0.94761733     0.40770
H699        H  0.68588067  0.93524623  0.68124859     0.40390
H700        H  0.66068386  0.88086742  0.72232711     0.35280
C701        C  0.26119228  0.04027841  0.85018678    -0.26450
C702        C  0.22432397  0.99279502  0.84610261    -0.14530
C703        C  0.24727145  0.94497037  0.81712872     0.36100
C704        C  0.29591798  0.95105620  0.78365647    -0.25900
C705        C  0.32534390  0.00278531  0.77961046    -0.15140
C706        C  0.30916665  0.04684821  0.81600209     0.37190
N707        N  0.33996731  0.10003502  0.81755493    -0.89390
H708        H  0.24810615  0.07691058  0.87183239     0.18300
H709        H  0.31171347  0.91413554  0.76188344     0.18290
N710        N  0.21859759  0.89105792  0.81648090    -0.88420
H711        H  0.38215544  0.09255276  0.83261292     0.35670
H712        H  0.34072581  0.11729158  0.77571524     0.40770
H713        H  0.24900918  0.86098318  0.83041745     0.40390
H714        H  0.20962905  0.88089446  0.77375003     0.35280
C715        C  0.45305831  0.74199405  0.67671446    -0.26450
C716        C  0.50831658  0.71995907  0.66466494    -0.14530
C717        C  0.55549410  0.75621573  0.68116935     0.36100
C718        C  0.54689598  0.80335673  0.71602486    -0.25900
C719        C  0.49284597  0.81936725  0.73330143    -0.15140
C720        C  0.44494529  0.78981697  0.71069296     0.37190
N721        N  0.38733994  0.80519875  0.72383917    -0.89390
H722        H  0.41497834  0.71731357  0.66713954     0.18300
H723        H  0.58341211  0.82914820  0.72871642     0.18290
N724        N  0.61322668  0.74484940  0.66641730    -0.88420
H725        H  0.36642440  0.81989840  0.68578023     0.35670
H726        H  0.38695208  0.83854857  0.75280886     0.40770
H727        H  0.63884395  0.74440557  0.70424436     0.40390
H728        H  0.62799981  0.78138298  0.64515019     0.35280
C729        C  0.45410246  0.72129863  0.19138697    -0.26450
C730        C  0.50768564  0.73933859  0.17362878    -0.14530
C731        C  0.55605424  0.71706727  0.20407837     0.36100
C732        C  0.54988960  0.68474086  0.25515610    -0.25900
C733        C  0.49595560  0.66922308  0.27685183    -0.15140
C734        C  0.44803301  0.68535206  0.24021742     0.37190
N735        N  0.39192482  0.66732714  0.25248446    -0.89390
H736        H  0.41617172  0.73207860  0.16473240     0.18300
H737        H  0.58798318  0.67960964  0.28250611     0.18290
N738        N  0.61191604  0.72638949  0.18259860    -0.88420
H739        H  0.37810512  0.64277758  0.21768803     0.35670
H740        H  0.36619004  0.70397519  0.25264920     0.40770
H741        H  0.62886690  0.68702437  0.17147918     0.40390
H742        H  0.63846820  0.74360753  0.21489719     0.35280
C743        C  0.55363285  0.70381212  0.81299470    -0.26450
C744        C  0.49922948  0.71785969  0.83037605    -0.14530
C745        C  0.45202684  0.68770308  0.80602693     0.36100
C746        C  0.46007428  0.65083096  0.76027403    -0.25900
C747        C  0.51382757  0.64442853  0.73471310    -0.15140
C748        C  0.56182439  0.66532191  0.76861227     0.37190
N749        N  0.61927611  0.64785480  0.75945506    -0.89390
H750        H  0.59064338  0.71997538  0.83727972     0.18300
H751        H  0.42179446  0.63525984  0.73898493     0.18290
N752        N  0.39463531  0.69566379  0.82476350    -0.88420
H753        H  0.64872070  0.67141463  0.78428333     0.35670
H754        H  0.63053223  0.65532336  0.71752030     0.40770
H755        H  0.39294609  0.72738415  0.85542310     0.40390
H756        H  0.38168658  0.65723843  0.84430715     0.35280
C757        C  0.26293908  0.86062300  0.97128078    -0.26450
C758        C  0.22646150  0.84328287  0.01539252    -0.14530
C759        C  0.25197148  0.80518703  0.05943971     0.36100
C760        C  0.30430954  0.77763924  0.05129082    -0.25900
C761        C  0.33478011  0.78881832  0.00265206    -0.15140
C762        C  0.31580221  0.83353439  0.96439768     0.37190
N763        N  0.35040314  0.85093509  0.91740673    -0.89390
H764        H  0.24917762  0.88928357  0.93688836     0.18300
H765        H  0.32161443  0.74780445  0.08402986     0.18290
N766        N  0.22251081  0.78845638  0.10993486    -0.88420
H767        H  0.35708482  0.89519714  0.91896639     0.35670
H768        H  0.32869081  0.84181276  0.87881422     0.40770
H769        H  0.25039018  0.79428865  0.14536282     0.40390
H770        H  0.21912930  0.74397168  0.11049160     0.35280
C771        C  0.74788409  0.83691772  0.03635900    -0.26450
C772        C  0.78037928  0.83529853  0.98688188    -0.14530
C773        C  0.75187795  0.80800762  0.93895271     0.36100
C774        C  0.70315734  0.77362969  0.94629467    -0.25900
C775        C  0.67751211  0.76843889  0.99918302    -0.15140
C776        C  0.69909919  0.80343171  0.04391485     0.37190
N777        N  0.67105348  0.80846369  0.09733025    -0.89390
H778        H  0.76276432  0.85919174  0.07342763     0.18300
H779        H  0.68258194  0.75431033  0.90895462     0.18290
N780        N  0.76959589  0.81560803  0.88154420    -0.88420
H781        H  0.69900077  0.79225151  0.13004188     0.35670
H782        H  0.63401323  0.78373314  0.09807635     0.40770
H783        H  0.81112664  0.80106062  0.87797411     0.40390
H784        H  0.76834567  0.85921507  0.87271919     0.35280
C785        C  0.17459254  0.53161501  0.30425986    -0.26450
C786        C  0.16323186  0.48494470  0.26904065    -0.14530
C787        C  0.19789611  0.43606753  0.27986651     0.36100
C788        C  0.24730783  0.43941237  0.31759907    -0.25900
C789        C  0.26485532  0.49144936  0.34436672    -0.15140
C790        C  0.22077655  0.53210446  0.34480530     0.37190
N791        N  0.21986718  0.57262235  0.38825493    -0.89390
H792        H  0.14332957  0.56604779  0.30503334     0.18300
H793        H  0.27761482  0.40489073  0.31649361     0.18290
N794        N  0.18381952  0.38369096  0.25169581    -0.88420
H795        H  0.18470613  0.56309444  0.41328169     0.35670
H796        H  0.21156566  0.61182176  0.36719745     0.40770
H797        H  0.18799133  0.39130656  0.20765483     0.40390
H798        H  0.21329529  0.35154008  0.26415034     0.35280
C799        C  0.96789734  0.73747264  0.15391501    -0.26450
C800        C  0.01553289  0.77343064  0.15963790    -0.14530
C801        C  0.06475874  0.74740568  0.18900905     0.36100
C802        C  0.05947165  0.69627455  0.22285894    -0.25900
C803        C  0.00673085  0.66801199  0.22643732    -0.15140
C804        C  0.96160102  0.68812726  0.18861829     0.37190
N805        N  0.90907284  0.65655727  0.18345172    -0.89390
H806        H  0.93258083  0.74961261  0.12628056     0.18300
H807        H  0.09734505  0.67746071  0.24427142     0.18290
N808        N  0.12026243  0.77292502  0.18557365    -0.88420
H809        H  0.90227990  0.64536476  0.14054512     0.35670
H810        H  0.87604919  0.68388165  0.19411101     0.40770
H811        H  0.14673721  0.74139537  0.17018658     0.40390
H812        H  0.13629643  0.78090808  0.22701302     0.35280
C813        C  0.02256533  0.26270566  0.14334485    -0.26450
C814        C  0.97972523  0.22145072  0.15037783    -0.14530
C815        C  0.92888760  0.24053355  0.17825076     0.36100
C816        C  0.93042802  0.29215289  0.20871569    -0.25900
C817        C  0.97994482  0.32562496  0.21231077    -0.15140
C818        C  0.02495550  0.31248777  0.17550143     0.37190
N819        N  0.07521364  0.34794042  0.17082141    -0.89390
H820        H  0.06166453  0.25107619  0.12442401     0.18300
H821        H  0.89311563  0.30562662  0.23110570     0.18290
N822        N  0.88015104  0.20318062  0.18563752    -0.88420
H823        H  0.11124811  0.32226133  0.18006999     0.35670
H824        H  0.07674306  0.37877782  0.20219002     0.40770
H825        H  0.85971081  0.19532064  0.14634162     0.40390
H826        H  0.84898723  0.22282317  0.20938076     0.35280
C827        C  0.74337113  0.57065833  0.32827847    -0.26450
C828        C  0.72303833  0.52281545  0.36101144    -0.14530
C829        C  0.76580897  0.48217856  0.37634500     0.36100
C830        C  0.81062250  0.47381526  0.33866563    -0.25900
C831        C  0.82220585  0.51378736  0.29385534    -0.15140
C832        C  0.79084860  0.56547663  0.29298237     0.37190
N833        N  0.80637362  0.61329327  0.25742726    -0.89390
H834        H  0.71660737  0.60829086  0.32197429     0.18300
H835        H  0.84091905  0.43942279  0.34871912     0.18290
N836        N  0.77272088  0.46165879  0.43478386    -0.88420
H837        H  0.80661258  0.59993414  0.21497437     0.35670
H838        H  0.84793088  0.62530129  0.27053901     0.40770
H839        H  0.77729795  0.49734548  0.46079644     0.40390
H840        H  0.81061595  0.43801282  0.44116209     0.35280
C841        C  0.95796257  0.69560047  0.78550942    -0.26450
C842        C  0.01149473  0.67119758  0.77936966    -0.14530
C843        C  0.05780858  0.69070712  0.81526395     0.36100
C844        C  0.05062299  0.73855127  0.84962327    -0.25900
C845        C  0.99972870  0.77080325  0.84658199    -0.15140
C846        C  0.95070187  0.74301912  0.81987205     0.37190
N847        N  0.89380489  0.76579168  0.82158126    -0.89390
H848        H  0.92055469  0.67689624  0.76446011     0.18300
H849        H  0.08761040  0.75455067  0.87248370     0.18290
N850        N  0.11338125  0.66391745  0.81676280    -0.88420
H851        H  0.86750324  0.73212993  0.83430098     0.35670
H852        H  0.87807149  0.77551669  0.78001920     0.40770
H853        H  0.11530663  0.63161184  0.78682219     0.40390
H854        H  0.12050281  0.64488093  0.85755670     0.35280
C855        C  0.05731173  0.24747288  0.82742534    -0.26450
C856        C  0.00271343  0.22384695  0.84053784    -0.14530
C857        C  0.95589698  0.26067095  0.82519558     0.36100
C858        C  0.96150682  0.30857495  0.78793224    -0.25900
C859        C  0.01442482  0.32680323  0.76882213    -0.15140
C860        C  0.06356094  0.29751420  0.79244934     0.37190
N861        N  0.12066648  0.31654014  0.78087586    -0.89390
H862        H  0.09588296  0.22316315  0.83767401     0.18300
H863        H  0.92391334  0.33494200  0.77783132     0.18290
N864        N  0.90203032  0.25193121  0.84925023    -0.88420
H865        H  0.13979888  0.32967402  0.81967572     0.35670
H866        H  0.11997966  0.35203348  0.75263382     0.40770
H867        H  0.89555942  0.28659284  0.87578118     0.40390
H868        H  0.87106552  0.25542187  0.81573067     0.35280
C869        C  0.75969110  0.54668198  0.67301897    -0.26450
C870        C  0.73609287  0.49475808  0.65167783    -0.14530
C871        C  0.77417174  0.44746698  0.65882212     0.36100
C872        C  0.82028741  0.44744635  0.69981034    -0.25900
C873        C  0.83709445  0.49681602  0.72865923    -0.15140
C874        C  0.80784508  0.54791338  0.71169558     0.37190
N875        N  0.82684445  0.60216187  0.73242859    -0.89390
H876        H  0.73511494  0.58549678  0.66798967     0.18300
H877        H  0.84786072  0.40996356  0.70354997     0.18290
N878        N  0.77168945  0.40207240  0.61975326    -0.88420
H879        H  0.86804619  0.60953626  0.71795254     0.35670
H880        H  0.82914402  0.59963891  0.77732757     0.40770
H881        H  0.77770012  0.36394739  0.64353037     0.40390
H882        H  0.80721406  0.40629511  0.59397416     0.35280
C883        C  0.69033892  0.53978160  0.19202020    -0.26450
C884        C  0.72727241  0.49470300  0.18159404    -0.14530
C885        C  0.72682276  0.44695916  0.21959878     0.36100
C886        C  0.69467665  0.44847117  0.26944253    -0.25900
C887        C  0.66099369  0.49658223  0.28366243    -0.15140
C888        C  0.65696873  0.54055633  0.24062333     0.37190
N889        N  0.62318476  0.58952730  0.24711540    -0.89390
H890        H  0.68609588  0.57508815  0.16080873     0.18300
H891        H  0.70047895  0.41336609  0.30027625     0.18290
N892        N  0.75805604  0.39617816  0.20847348    -0.88420
H893        H  0.59422845  0.59216792  0.21164835     0.35670
H894        H  0.65106324  0.62456773  0.24546893     0.40770
H895        H  0.80111907  0.40732124  0.20394162     0.40390
H896        H  0.74159927  0.38098916  0.16946785     0.35280
C897        C  0.72264892  0.42944050  0.80767099    -0.26450
C898        C  0.73264325  0.48150684  0.83482072    -0.14530
C899        C  0.70647842  0.53057439  0.81025013     0.36100
C900        C  0.67570909  0.52827256  0.75757409    -0.25900
C901        C  0.67045107  0.47860572  0.72502376    -0.15140
C902        C  0.69303520  0.42711989  0.75333152     0.37190
N903        N  0.69171941  0.37304793  0.72550107    -0.89390
H904        H  0.73801412  0.39006118  0.82867525     0.18300
H905        H  0.66713977  0.56797291  0.73655055     0.18290
N906        N  0.71159504  0.58370774  0.83941411    -0.88420
H907        H  0.73393385  0.35879693  0.72379411     0.35670
H908        H  0.67309540  0.34294034  0.75286349     0.40770
H909        H  0.67058109  0.59666405  0.85000694     0.40390
H910        H  0.72907069  0.61429071  0.81159782     0.35280
C911        C  0.79011409  0.68962820  0.05238492    -0.26450
C912        C  0.78251610  0.66183455  0.00053129    -0.14530
C913        C  0.81590666  0.68077608  0.95481791     0.36100
C914        C  0.85166817  0.72933539  0.96016044    -0.25900
C915        C  0.85129683  0.76485692  0.00798344    -0.15140
C916        C  0.82479498  0.73917166  0.05772111     0.37190
N917        N  0.83310256  0.76168156  0.11426397    -0.89390
H918        H  0.77107753  0.67064103  0.09009800     0.18300
H919        H  0.87574665  0.74200191  0.92436164     0.18290
N920        N  0.81372054  0.64987437  0.90251253    -0.88420
H921        H  0.80963754  0.73843093  0.14424195     0.35670
H922        H  0.81863982  0.80321560  0.11675197     0.40770
H923        H  0.85548352  0.63813057  0.89310658     0.40390
H924        H  0.79726482  0.67725404  0.86969167     0.35280
C925        C  0.77439979  0.29774871  0.95662569    -0.26450
C926        C  0.77454438  0.31799318  0.01203687    -0.14530
C927        C  0.81498253  0.29426076  0.05273431     0.36100
C928        C  0.85069071  0.24980536  0.03786177    -0.25900
C929        C  0.84047683  0.21896558  0.98758133    -0.15140
C930        C  0.80589713  0.24919466  0.94325461     0.37190
N931        N  0.79802495  0.23147920  0.88499067    -0.89390
H932        H  0.74966917  0.32037689  0.92265770     0.18300
H933        H  0.88227861  0.23686158  0.06939648     0.18290
N934        N  0.82056243  0.31401167  0.11031866    -0.88420
H935        H  0.75462852  0.23272492  0.87203697     0.35670
H936        H  0.81481341  0.19142632  0.87773123     0.40770
H937        H  0.78139092  0.30721945  0.12938962     0.40390
H938        H  0.83079555  0.35754282  0.11035016     0.35280
C939        C  0.21421163  0.55655222  0.71923849    -0.26450
C940        C  0.18039317  0.50831785  0.71212707    -0.14530
C941        C  0.19525674  0.46899062  0.67059323     0.36100
C942        C  0.24616817  0.47512002  0.64136679    -0.25900
C943        C  0.28742589  0.51611566  0.65708325    -0.15140
C944        C  0.26760177  0.56119860  0.69376212     0.37190
N945        N  0.30090447  0.61014748  0.71079698    -0.89390
H946        H  0.20017680  0.59017779  0.74658125     0.18300
H947        H  0.25662325  0.44115786  0.61452145     0.18290
N948        N  0.15933380  0.42042587  0.66007966    -0.88420
H949        H  0.30450763  0.61190830  0.75547473     0.35670
H950        H  0.34169698  0.61061280  0.69573465     0.40770
H951        H  0.18354582  0.38387014  0.67112442     0.40390
H952        H  0.14805865  0.42056508  0.61620482     0.35280
C953        C  0.33283414  0.46960726  0.23851321    -0.26450
C954        C  0.32733289  0.51861320  0.27187192    -0.14530
C955        C  0.29224930  0.56366935  0.24520075     0.36100
C956        C  0.26014515  0.55440562  0.19332843    -0.25900
C957        C  0.26032427  0.50182967  0.16603166    -0.15140
C958        C  0.29879553  0.45990486  0.18885252     0.37190
N959        N  0.30418069  0.40661496  0.16038136    -0.89390
H960        H  0.35306047  0.43254932  0.25670105     0.18300
H961        H  0.23502505  0.58915579  0.17454731     0.18290
N962        N  0.28282965  0.61673491  0.27313155    -0.88420
H963        H  0.29648785  0.37312330  0.18978504     0.35670
H964        H  0.34651668  0.40357522  0.14780036     0.40770
H965        H  0.23909223  0.62054171  0.27928129     0.40390
H966        H  0.28859819  0.64977383  0.24299840     0.35280
C967        C  0.14021861  0.73510864  0.03340633    -0.26450
C968        C  0.15478351  0.77662401  0.99165037    -0.14530
C969        C  0.18604888  0.75535219  0.94460127     0.36100
C970        C  0.21662844  0.70394930  0.95040661    -0.25900
C971        C  0.21206458  0.66875275  0.99848222    -0.15140
C972        C  0.16792978  0.68121459  0.03655535     0.37190
N973        N  0.15290541  0.63965385  0.07988401    -0.89390
H974        H  0.11420699  0.74562792  0.06846354     0.18300
H975        H  0.24275892  0.69059610  0.91567343     0.18290
N976        N  0.19350333  0.78853192  0.89322573    -0.88420
H977        H  0.11885835  0.65425867  0.10340730     0.35670
H978        H  0.18826668  0.63639194  0.10840954     0.40770
H979        H  0.17934690  0.76357077  0.85907382     0.40390
H980        H  0.23758800  0.79141978  0.88832853     0.35280
C981        C  0.17523218  0.31437451  0.03119039    -0.26450
C982        C  0.21877032  0.32632887  0.99192214    -0.14530
C983        C  0.21711933  0.29446952  0.94099702     0.36100
C984        C  0.17637840  0.25003443  0.93397925    -0.25900
C985        C  0.14508028  0.22952340  0.98138723    -0.15140
C986        C  0.13359647  0.27169151  0.02085566     0.37190
N987        N  0.07469486  0.28545296  0.02938403    -0.89390
H988        H  0.16727063  0.34503906  0.06415474     0.18300
H989        H  0.18026162  0.22313225  0.89723565     0.18290
N990        N  0.26026005  0.30076096  0.89915227    -0.88420
H991        H  0.05379504  0.29119930  0.98905565     0.35670
H992        H  0.07142186  0.32473442  0.04958366     0.40770
H993        H  0.28720783  0.33556596  0.90755065     0.40390
H994        H  0.24017947  0.30575467  0.85851014     0.35280
C995        C  0.31699615  0.43783424  0.74237751    -0.26450
C996        C  0.35733046  0.48009815  0.72403209    -0.14530
C997        C  0.37886244  0.51512192  0.76818655     0.36100
C998        C  0.34402053  0.52582039  0.81461742    -0.25900
C999        C  0.29269764  0.49496673  0.82371992    -0.15140
C1000       C  0.28218523  0.44730770  0.78928490     0.37190
N1001       N  0.23604213  0.40872819  0.80038492    -0.89390
H1002       H  0.30347729  0.40456364  0.71330057     0.18300
H1003       H  0.35963704  0.55561802  0.84649599     0.18290
N1004       N  0.43906936  0.52684085  0.77409381    -0.88420
H1005       H  0.23994524  0.39664007  0.84357095     0.35670
H1006       H  0.19758224  0.43137218  0.79579179     0.40770
H1007       H  0.46062424  0.48752752  0.77608202     0.40390
H1008       H  0.44914723  0.54626185  0.81315106     0.35280
loop_ 
_geom_bond_atom_site_label_1 
_geom_bond_atom_site_label_2 
_geom_bond_distance 
_geom_bond_site_symmetry_2 
_ccdc_geom_bond_type 
O1           Cu9   2.120   1_554  S
O1           C11   1.297   1_554  A
O2           Cu9   2.137       .  S
O2           C12   1.298       .  A
O3           Cu9   1.857       .  S
O3           C13   1.249       .  A
O4           Cu9   1.838   1_554  S
O4           C14   1.247       .  A
O5          Cu10   2.151   1_554  S
O5           C14   1.300       .  A
O6          Cu10   2.134       .  S
O6           C13   1.298       .  A
O7          Cu10   1.846       .  S
O7           C12   1.249       .  A
O8          Cu10   1.849       .  S
O8           C11   1.247       .  A
Cu9         Cu10   2.354       .  S
C11         C971   1.463       .  S
C12         C982   1.480       .  S
C13         C999   1.488       .  S
C14         C957   1.480       .  S
C15         C267   1.591       .  S
C15         C301   1.569       .  S
C15         C943   1.582       .  S
C15         C996   1.590       .  S
O16         Cu24   1.886   1_556  S
O16          C26   1.255       .  A
O17         Cu24   1.887       .  S
O17          C27   1.256       .  A
O18         Cu24   2.120       .  S
O18          C28   1.296       .  A
O19         Cu24   2.088       .  S
O19          C29   1.292       .  A
O20         Cu25   1.847       .  S
O20          C29   1.250       .  A
O21         Cu25   1.886       .  S
O21          C28   1.254       .  A
O22         Cu25   2.109       .  S
O22          C27   1.294       .  A
O23         Cu25   2.117   1_556  S
O23          C26   1.295       .  A
Cu24        Cu25   2.368       .  S
C26         C898   1.473       .  S
C27         C884   1.473       .  S
C28         C912   1.475       .  S
C29         C926   1.452       .  S
C30         C312   1.589       .  S
C30         C330   1.619       .  S
C30         C870   1.587       .  S
C30         C901   1.588       .  S
O31         Cu39   1.852       .  S
O31          C41   1.249       .  A
O32         Cu39   1.860   1_655  S
O32          C42   1.250       .  A
O33         Cu39   2.103       .  S
O33          C43   1.294       .  A
O34         Cu39   2.129       .  S
O34          C44   1.298       .  A
O35         Cu40   1.882       .  S
O35          C44   1.252       .  A
O36         Cu40   1.858       .  S
O36          C43   1.250       .  A
O37         Cu40   2.134   1_655  S
O37          C42   1.298       .  A
O38         Cu40   2.109       .  S
O38          C41   1.295       .  A
Cu39        Cu40   2.369       .  S
C41         C940   1.465       .  S
C42         C873   1.474       .  S
C43         C842   1.459       .  S
C44         C859   1.477       .  S
O45         Cu53   1.841       .  S
O45          C55   1.247   1_655  A
O46         Cu53   1.869       .  S
O46          C56   1.249       .  A
O47         Cu53   2.151       .  S
O47          C57   1.300       .  A
O48         Cu53   2.149   1_455  S
O48          C58   1.300       .  A
O49         Cu54   1.844   1_455  S
O49          C58   1.246       .  A
O50         Cu54   1.862       .  S
O50          C57   1.249       .  A
O51         Cu54   2.122       .  S
O51          C56   1.297       .  A
O52         Cu54   2.156   1_455  S
O52          C55   1.301       .  A
Cu53        Cu54   2.359       .  S
C55         C803   1.484       .  S
C56         C817   1.472       .  S
C57         C831   1.490       .  S
C58         C786   1.476       .  S
C59         C276   1.589       .  S
C59         C323   1.582       .  S
C59         C828   1.591       .  S
C59         C887   1.584       .  S
C60         C283   1.605       .  S
C60         C294   1.593       .  S
C60         C789   1.594       .  S
C60         C954   1.585       .  S
O61         Cu69   2.098       .  S
O61          C71   1.293       .  A
O62         Cu69   2.106   1_554  S
O62          C72   1.294       .  A
O63         Cu69   1.853       .  S
O63          C73   1.251       .  A
O64         Cu69   1.852       .  S
O64          C74   1.250   1_556  A
O65         Cu70   2.103       .  S
O65          C74   1.294       .  A
O66         Cu70   2.106   1_556  S
O66          C73   1.294       .  A
O67         Cu70   1.870       .  S
O67          C72   1.252       .  A
O68         Cu70   1.877   1_556  S
O68          C71   1.253       .  A
Cu69        Cu70   2.369   1_556  S
C71         C744   1.462       .  S
C72         C730   1.461       .  S
C73         C775   1.461       .  S
C74         C761   1.466       .  S
C75         C303   1.575       .  S
C75         C332   1.563       .  S
C75         C716   1.584       .  S
C75         C747   1.581       .  S
O76         Cu84   1.883       .  S
O76          C86   1.254       .  A
O77         Cu84   1.894   1_545  S
O77          C87   1.256       .  A
O78         Cu84   2.120       .  S
O78          C88   1.294       .  A
O79         Cu84   2.116   1_545  S
O79          C89   1.296   1_545  A
O80         Cu85   1.855       .  S
O80          C89   1.250       .  A
O81         Cu85   1.828       .  S
O81          C88   1.250       .  A
O82         Cu85   2.112   1_545  S
O82          C87   1.294       .  A
O83         Cu85   2.090       .  S
O83          C86   1.292       .  A
Cu84        Cu85   2.364       .  S
C86         C719   1.459       .  S
C87         C674   1.474       .  S
C88         C688   1.480       .  S
C89         C705   1.463   1_565  S
O90         Cu98   1.870       .  S
O90         C100   1.250       .  A
O91         Cu98   1.866       .  S
O91         C101   1.251       .  A
O92         Cu98   2.140   1_556  S
O92         C102   1.300       .  A
O93         Cu98   2.105       .  S
O93         C103   1.294       .  A
O94         Cu99   1.841       .  S
O94         C103   1.247       .  A
O95         Cu99   1.864   1_556  S
O95         C102   1.249       .  A
O96         Cu99   2.129       .  S
O96         C101   1.297       .  A
O97         Cu99   2.123       .  S
O97         C100   1.297       .  A
Cu98        Cu99   2.367       .  S
C100        C632   1.469       .  S
C101        C646   1.474       .  S
C102        C660   1.478       .  S
C103        C618   1.454       .  S
C104        C269   1.584       .  S
C104        C310   1.603       .  S
C104        C663   1.591       .  S
C104        C677   1.586       .  S
O105       Cu113   2.132       .  S
O105        C115   1.298       .  A
O106       Cu113   2.130       .  S
O106        C116   1.297       .  A
O107       Cu113   1.864       .  S
O107        C117   1.251       .  A
O108       Cu113   1.880   1_565  S
O108        C118   1.251       .  A
O109       Cu114   2.137   1_565  S
O109        C118   1.299       .  A
O110       Cu114   2.115       .  S
O110        C117   1.295       .  A
O111       Cu114   1.860       .  S
O111        C116   1.250       .  A
O112       Cu114   1.843       .  S
O112        C115   1.247       .  A
Cu113      Cu114   2.367       .  S
C115        C590   1.467       .  S
C116        C576   1.479       .  S
C117        C562   1.468       .  S
C118        C604   1.481       .  S
C119        C285   1.597       .  S
C119        C319   1.595       .  S
C119        C607   1.602       .  S
C119        C733   1.574       .  S
C120        C274   1.576       .  S
C120        C296   1.577       .  S
C120        C565   1.591       .  S
C120        C621   1.577       .  S
O121       Cu129   1.882       .  S
O121        C131   1.253       .  A
O122       Cu129   1.871   1_565  S
O122        C132   1.252       .  A
O123       Cu129   2.121   1_565  S
O123        C133   1.296       .  A
O124       Cu129   2.125       .  S
O124        C134   1.297       .  A
O125       Cu130   1.872       .  S
O125        C134   1.252       .  A
O126       Cu130   1.864   1_565  S
O126        C133   1.252       .  A
O127       Cu130   2.118   1_565  S
O127        C132   1.295       .  A
O128       Cu130   2.113       .  S
O128        C131   1.295       .  A
Cu129      Cu130   2.368       .  S
C131        C520   1.473       .  S
C132        C534   1.469       .  S
C133        C548   1.477       .  S
C134        C509   1.474       .  S
C135        C287   1.601       .  S
C135        C305   1.586       .  S
C135        C495   1.586       .  S
C135        C551   1.593       .  S
O136       Cu144   1.853       .  S
O136        C146   1.250       .  A
O137       Cu144   1.862   1_545  S
O137        C147   1.250       .  A
O138       Cu144   2.128       .  S
O138        C148   1.296       .  A
O139       Cu144   2.140   1_545  S
O139        C149   1.298       .  A
O140       Cu145   1.846   1_545  S
O140        C149   1.248       .  A
O141       Cu145   1.847       .  S
O141        C148   1.250       .  A
O142       Cu145   2.127   1_545  S
O142        C147   1.297       .  A
O143       Cu145   2.121       .  S
O143        C146   1.296       .  A
Cu144      Cu145   2.362       .  S
C146        C450   1.472       .  S
C147        C436   1.471       .  S
C148        C478   1.473       .  S
C149        C464   1.483       .  S
C150        C321   1.566       .  S
C150        C328   1.584       .  S
C150        C422   1.577       .  S
C150        C453   1.580       .  S
O151       Cu159   2.112       .  S
O151        C161   1.295       .  A
O152       Cu159   2.114   1_655  S
O152        C162   1.296       .  A
O153       Cu159   1.846   1_655  S
O153        C163   1.249       .  A
O154       Cu159   1.866       .  S
O154        C164   1.251       .  A
O155       Cu160   2.115       .  S
O155        C164   1.296       .  A
O156       Cu160   2.097   1_655  S
O156        C163   1.293       .  A
O157       Cu160   1.881   1_655  S
O157        C162   1.253       .  A
O158       Cu160   1.869       .  S
O158        C161   1.252       .  A
Cu159      Cu160   2.373       .  S
C161        C492   1.466       .  S
C162        C425   1.471       .  S
C163        C394   1.452       .  S
C164        C408   1.466       .  S
O165       Cu173   2.113       .  S
O165        C175   1.295       .  A
O166       Cu173   2.112       .  S
O166        C176   1.295   1_655  A
O167       Cu173   1.874   1_455  S
O167        C177   1.252       .  A
O168       Cu173   1.875       .  S
O168        C178   1.252       .  A
O169       Cu174   2.116   1_655  S
O169        C178   1.295       .  A
O170       Cu174   2.107       .  S
O170        C177   1.294       .  A
O171       Cu174   1.866       .  S
O171        C176   1.251       .  A
O172       Cu174   1.864   1_655  S
O172        C175   1.252       .  A
Cu173      Cu174   2.369   1_655  S
C175        C369   1.469       .  S
C176        C355   1.465       .  S
C177        C338   1.466       .  S
C178        C380   1.468       .  S
C179        C278   1.570       .  S
C179        C314   1.600       .  S
C179        C383   1.575       .  S
C179        C439   1.598       .  S
C180        C265   1.590       .  S
C180        C292   1.581       .  S
C180        C341   1.592       .  S
C180        C506   1.587       .  S
C181        C195   1.577       .  S
C181        C256   1.582   1_655  S
C181        C366   1.595   1_655  S
C181        C814   1.577       .  S
C182        C197   1.577   1_565  S
C182        C222   1.582       .  S
C182        C481   1.572       .  S
C182        C579   1.589   1_565  S
C183        C202   1.577       .  S
C183        C224   1.600   1_455  S
C183        C411   1.582   1_455  S
C183        C800   1.587       .  S
C184        C206   1.596   1_545  S
C184        C258   1.596       .  S
C184        C537   1.591       .  S
C184        C593   1.591       .  S
C185        C229   1.565       .  S
C185        C247   1.554   1_455  S
C185        C397   1.579       .  S
C185        C845   1.572   1_455  S
C186        C213   1.573       .  S
C186        C231   1.579   1_545  S
C186        C523   1.584       .  S
C186        C702   1.580   1_545  S
C187        C211   1.582   1_655  S
C187        C240   1.588       .  S
C187        C352   1.571       .  S
C187        C856   1.594   1_655  S
C188        C238   1.581   1_565  S
C188        C249   1.577       .  S
C188        C467   1.585   1_565  S
C188        C691   1.579       .  S
C189        C215   1.575       .  S
C189        C260   1.574   1_556  S
C189        C649   1.576   1_556  S
C189        C985   1.580       .  S
C190        C204   1.587       .  S
C190        C233   1.576   1_554  S
C190        C758   1.579       .  S
C190        C968   1.584   1_554  S
C191        C193   1.595   1_556  S
C191        C242   1.557       .  S
C191        C635   1.587   1_556  S
C191        C929   1.579       .  S
C192        C220   1.570   1_556  S
C192        C251   1.590       .  S
C192        C772   1.579       .  S
C192        C915   1.591   1_556  S
C193        C194   1.413       .  A
C193        C198   1.407       .  A
C194        C195   1.437       .  A
C194        H199   1.081       .  S
C195        C196   1.424       .  A
C196        C197   1.425       .  A
C196        H200   1.081       .  S
C197        C198   1.427       .  A
C198        H201   1.082       .  S
C202        C203   1.426       .  A
C202        C207   1.426       .  A
C203        C204   1.414       .  A
C203        H208   1.079       .  S
C204        C205   1.432       .  A
C205        C206   1.431       .  A
C205        H209   1.082       .  S
C206        C207   1.427       .  A
C207        H210   1.082       .  S
C211        C212   1.416       .  A
C211        C216   1.409       .  A
C212        C213   1.428       .  A
C212        H217   1.082       .  S
C213        C214   1.425       .  A
C214        C215   1.425       .  A
C214        H218   1.081       .  S
C215        C216   1.423       .  A
C216        H219   1.082       .  S
C220        C221   1.422       .  A
C220        C225   1.425       .  A
C221        C222   1.410       .  A
C221        H226   1.074       .  S
C222        C223   1.437       .  A
C223        C224   1.432       .  A
C223        H227   1.082       .  S
C224        C225   1.420       .  A
C225        H228   1.082       .  S
C229        C230   1.427       .  A
C229        C234   1.406       .  A
C230        C231   1.419       .  A
C230        H235   1.080       .  S
C231        C232   1.427       .  A
C232        C233   1.419       .  A
C232        H236   1.081       .  S
C233        C234   1.422       .  A
C234        H237   1.082       .  S
C238        C239   1.435       .  A
C238        C243   1.410       .  A
C239        C240   1.426       .  A
C239        H244   1.082       .  S
C240        C241   1.415       .  A
C241        C242   1.429       .  A
C241        H245   1.082       .  S
C242        C243   1.415       .  A
C243        H246   1.064       .  S
C247        C248   1.415       .  A
C247        C252   1.433       .  A
C248        C249   1.404       .  A
C248        H253   1.076       .  S
C249        C250   1.433       .  A
C250        C251   1.417       .  A
C250        H254   1.069       .  S
C251        C252   1.410       .  A
C252        H255   1.081       .  S
C256        C257   1.435       .  A
C256        C261   1.420       .  A
C257        C258   1.427       .  A
C257        H262   1.082       .  S
C258        C259   1.420       .  A
C259        C260   1.429       .  A
C259        H263   1.082       .  S
C260        C261   1.417       .  A
C261        H264   1.071       .  S
C265        C266   1.435       .  A
C265        C270   1.433       .  A
C266        C267   1.429       .  A
C266        H271   1.081       .  S
C267        C268   1.423       .  A
C268        C269   1.418       .  A
C268        H272   1.081       .  S
C269        C270   1.416       .  A
C270        H273   1.082       .  S
C274        C275   1.424       .  A
C274        C279   1.415       .  A
C275        C276   1.424       .  A
C275        H280   1.083       .  S
C276        C277   1.420       .  A
C277        C278   1.428       .  A
C277        H281   1.066       .  S
C278        C279   1.413       .  A
C279        H282   1.082       .  S
C283        C284   1.440       .  A
C283        C288   1.437       .  A
C284        C285   1.431       .  A
C284        H289   1.082       .  S
C285        C286   1.420       .  A
C286        C287   1.425       .  A
C286        H290   1.082       .  S
C287        C288   1.439       .  A
C288        H291   1.079       .  S
C292        C293   1.420       .  A
C292        C297   1.414       .  A
C293        C294   1.425       .  A
C293        H298   1.082       .  S
C294        C295   1.431       .  A
C295        C296   1.428       .  A
C295        H299   1.082       .  S
C296        C297   1.428       .  A
C297        H300   1.075       .  S
C301        C302   1.407       .  A
C301        C306   1.429       .  A
C302        C303   1.411       .  A
C302        H307   1.068       .  S
C303        C304   1.430       .  A
C304        C305   1.416       .  A
C304        H308   1.070       .  S
C305        C306   1.421       .  A
C306        H309   1.082       .  S
C310        C311   1.426       .  A
C310        C315   1.434       .  A
C311        C312   1.433       .  A
C311        H316   1.082       .  S
C312        C313   1.423       .  A
C313        C314   1.430       .  A
C313        H317   1.079       .  S
C314        C315   1.431       .  A
C315        H318   1.081       .  S
C319        C320   1.417       .  A
C319        C324   1.439       .  A
C320        C321   1.424       .  A
C320        H325   1.081       .  S
C321        C322   1.397       .  A
C322        C323   1.419       .  A
C322        H326   1.082       .  S
C323        C324   1.436       .  A
C324        H327   1.081       .  S
C328        C329   1.442       .  A
C328        C333   1.402       .  A
C329        C330   1.438       .  A
C329        H334   1.082       .  S
C330        C331   1.429       .  A
C331        C332   1.435       .  A
C331        H335   1.082       .  S
C332        C333   1.408       .  A
C333        H336   1.067       .  S
C337        C338   1.387       .  A
C337        C342   1.405       .  A
C337        H344   1.085       .  S
C338        C339   1.405       .  A
C339        C340   1.400       .  A
C339        N346   1.429       .  S
C340        C341   1.416       .  A
C340        H345   1.066       .  S
C341        C342   1.458       .  A
C342        N343   1.433       .  S
N343        H347   1.045       .  S
N343        H348   1.023       .  S
N346        H349   1.042       .  S
N346        H350   1.044       .  S
C351        C352   1.409   1_455  A
C351        C356   1.399       .  A
C351        H358   1.058       .  S
C352        C353   1.422       .  A
C353        C354   1.405       .  A
C353        N360   1.420       .  S
C354        C355   1.395   1_655  A
C354        H359   1.075       .  S
C355        C356   1.409       .  A
C356        N357   1.429       .  S
N357        H361   1.044       .  S
N357        H362   1.045       .  S
N360        H363   1.044       .  S
N360        H364   1.042       .  S
C365        C366   1.410   1_655  A
C365        C370   1.410       .  A
C365        H372   1.061       .  S
C366        C367   1.466       .  A
C367        C368   1.406       .  A
C367        N374   1.440       .  S
C368        C369   1.384   1_455  A
C368        H373   1.085       .  S
C369        C370   1.411       .  A
C370        N371   1.438       .  S
N371        H375   1.044       .  S
N371        H376   1.043       .  S
N374        H377   1.032       .  S
N374        H378   1.045       .  S
C379        C380   1.398       .  A
C379        C384   1.406       .  A
C379        H386   1.085       .  S
C380        C381   1.403       .  A
C381        C382   1.408       .  A
C381        N388   1.433       .  S
C382        C383   1.417       .  A
C382        H387   1.081       .  S
C383        C384   1.438       .  A
C384        N385   1.432       .  S
N385        H389   1.042       .  S
N385        H390   1.040       .  S
N388        H391   1.046       .  S
N388        H392   1.045       .  S
C393        C394   1.387   1_455  A
C393        C398   1.399       .  A
C393        H400   1.086       .  S
C394        C395   1.407       .  A
C395        C396   1.406       .  A
C395        N402   1.434       .  S
C396        C397   1.416   1_655  A
C396        H401   1.073       .  S
C397        C398   1.453       .  A
C398        N399   1.436       .  S
N399        H403   1.044       .  S
N399        H404   1.026       .  S
N402        H405   1.046       .  S
N402        H406   1.045       .  S
C407        C408   1.385   1_655  A
C407        C412   1.408       .  A
C407        H414   1.085       .  S
C408        C409   1.411       .  A
C409        C410   1.411       .  A
C409        N416   1.431       .  S
C410        C411   1.413   1_455  A
C410        H415   1.067       .  S
C411        C412   1.438       .  A
C412        N413   1.426       .  S
N413        H417   1.045       .  S
N413        H418   1.032       .  S
N416        H419   1.046       .  S
N416        H420   1.044       .  S
C421        C422   1.417       .  A
C421        C426   1.412       .  A
C421        H428   1.070       .  S
C422        C423   1.434       .  A
C423        C424   1.406       .  A
C423        N430   1.432       .  S
C424        C425   1.394       .  A
C424        H429   1.082       .  S
C425        C426   1.411       .  A
C426        N427   1.439       .  S
N427        H431   1.043       .  S
N427        H432   1.045       .  S
N430        H433   1.044       .  S
N430        H434   1.043       .  S
C435        C436   1.399       .  A
C435        C440   1.412       .  A
C435        H442   1.085       .  S
C436        C437   1.398       .  A
C437        C438   1.420       .  A
C437        N444   1.432       .  S
C438        C439   1.427       .  A
C438        H443   1.067       .  S
C439        C440   1.428       .  A
C440        N441   1.421       .  S
N441        H445   1.046       .  S
N441        H446   1.045       .  S
N444        H447   1.044       .  S
N444        H448   1.039       .  S
C449        C450   1.414       .  A
C449        C454   1.412       .  A
C449        H456   1.085       .  S
C450        C451   1.412       .  A
C451        C452   1.406       .  A
C451        N458   1.432       .  S
C452        C453   1.425       .  A
C452        H457   1.083       .  S
C453        C454   1.401       .  A
C454        N455   1.439       .  S
N455        H459   1.046       .  S
N455        H460   1.046       .  S
N458        H461   1.045       .  S
N458        H462   1.044       .  S
C463        C464   1.389       .  A
C463        C468   1.411       .  A
C463        H470   1.084       .  S
C464        C465   1.423   1_545  A
C465        C466   1.404       .  A
C465        N472   1.438       .  S
C466        C467   1.398   1_565  A
C466        H471   1.058       .  S
C467        C468   1.444       .  A
C468        N469   1.429       .  S
N469        H473   1.043       .  S
N469        H474   1.043       .  S
N472        H475   1.045       .  S
N472        H476   1.043       .  S
C477        C478   1.396       .  A
C477        C482   1.416       .  A
C477        H484   1.082       .  S
C478        C479   1.408   1_565  A
C479        C480   1.397       .  A
C479        N486   1.431       .  S
C480        C481   1.402   1_545  A
C480        H485   1.061       .  S
C481        C482   1.445       .  A
C482        N483   1.437       .  S
N483        H487   1.040       .  S
N483        H488   1.039       .  S
N486        H489   1.044       .  S
N486        H490   1.044       .  S
C491        C492   1.394       .  A
C491        C496   1.418       .  A
C491        H498   1.084       .  S
C492        C493   1.401       .  A
C493        C494   1.402       .  A
C493        N500   1.436       .  S
C494        C495   1.405       .  A
C494        H499   1.058       .  S
C495        C496   1.442       .  A
C496        N497   1.432       .  S
N497        H501   1.046       .  S
N497        H502   1.036       .  S
N500        H503   1.043       .  S
N500        H504   1.045       .  S
C505        C506   1.424       .  A
C505        C510   1.410       .  A
C505        H512   1.080       .  S
C506        C507   1.413       .  A
C507        C508   1.416       .  A
C507        N514   1.426       .  S
C508        C509   1.408       .  A
C508        H513   1.085       .  S
C509        C510   1.406       .  A
C510        N511   1.438       .  S
N511        H515   1.045       .  S
N511        H516   1.045       .  S
N514        H517   1.045       .  S
N514        H518   1.046       .  S
C519        C520   1.392       .  A
C519        C524   1.407       .  A
C519        H526   1.082       .  S
C520        C521   1.414   1_545  A
C521        C522   1.410       .  A
C521        N528   1.442       .  S
C522        C523   1.412   1_565  A
C522        H527   1.068       .  S
C523        C524   1.446       .  A
C524        N525   1.437       .  S
N525        H529   1.041       .  S
N525        H530   1.042       .  S
N528        H531   1.044       .  S
N528        H532   1.043       .  S
C533        C534   1.387   1_545  A
C533        C538   1.395       .  A
C533        H540   1.086       .  S
C534        C535   1.413       .  A
C535        C536   1.415       .  A
C535        N542   1.432       .  S
C536        C537   1.421   1_565  A
C536        H541   1.075       .  S
C537        C538   1.435       .  A
C538        N539   1.408       .  S
N539        H543   1.039       .  S
N539        H544   1.037       .  S
N542        H545   1.045       .  S
N542        H546   1.044       .  S
C547        C548   1.411       .  A
C547        C552   1.411       .  A
C547        H554   1.084       .  S
C548        C549   1.397       .  A
C549        C550   1.411       .  A
C549        N556   1.431       .  S
C550        C551   1.426       .  A
C550        H555   1.078       .  S
C551        C552   1.411       .  A
C552        N553   1.429       .  S
N553        H557   1.046       .  S
N553        H558   1.046       .  S
N556        H559   1.044       .  S
N556        H560   1.045       .  S
C561        C562   1.390       .  A
C561        C566   1.411       .  A
C561        H568   1.078       .  S
C562        C563   1.402       .  A
C563        C564   1.392       .  A
C563        N570   1.426       .  S
C564        C565   1.411       .  A
C564        H569   1.059       .  S
C565        C566   1.458       .  A
C566        N567   1.440       .  S
N567        H571   1.045       .  S
N567        H572   1.027       .  S
N570        H573   1.045       .  S
N570        H574   1.043       .  S
C575        C576   1.413   1_565  A
C575        C580   1.409       .  A
C575        H582   1.085       .  S
C576        C577   1.411       .  A
C577        C578   1.409       .  A
C577        N584   1.431       .  S
C578        C579   1.427       .  A
C578        H583   1.083       .  S
C579        C580   1.401   1_545  A
C580        N581   1.426       .  S
N581        H585   1.043       .  S
N581        H586   1.046       .  S
N584        H587   1.041       .  S
N584        H588   1.043       .  S
C589        C590   1.389   1_565  A
C589        C594   1.404       .  A
C589        H596   1.086       .  S
C590        C591   1.412       .  A
C591        C592   1.420       .  A
C591        N598   1.434       .  S
C592        C593   1.418       .  A
C592        H597   1.068       .  S
C593        C594   1.425   1_545  A
C594        N595   1.411       .  S
N595        H599   1.043       .  S
N595        H600   1.045       .  S
N598        H601   1.045       .  S
N598        H602   1.042       .  S
C603        C604   1.395       .  A
C603        C608   1.403       .  A
C603        H610   1.086       .  S
C604        C605   1.423       .  A
C605        C606   1.419       .  A
C605        N612   1.440       .  S
C606        C607   1.425       .  A
C606        H611   1.074       .  S
C607        C608   1.432       .  A
C608        N609   1.414       .  S
N609        H613   1.040       .  S
N609        H614   1.038       .  S
N612        H615   1.045       .  S
N612        H616   1.044       .  S
C617        C618   1.389       .  A
C617        C622   1.403       .  A
C617        H624   1.086       .  S
C618        C619   1.410       .  A
C619        C620   1.407       .  A
C619        N626   1.431       .  S
C620        C621   1.411       .  A
C620        H625   1.059       .  S
C621        C622   1.438       .  A
C622        N623   1.423       .  S
N623        H627   1.044       .  S
N623        H628   1.045       .  S
N626        H629   1.046       .  S
N626        H630   1.044       .  S
C631        C632   1.395   1_556  A
C631        C636   1.405       .  A
C631        H638   1.085       .  S
C632        C633   1.408       .  A
C633        C634   1.418       .  A
C633        N640   1.437       .  S
C634        C635   1.428       .  A
C634        H639   1.077       .  S
C635        C636   1.425   1_554  A
C636        N637   1.420       .  S
N637        H641   1.038       .  S
N637        H642   1.040       .  S
N640        H643   1.045       .  S
N640        H644   1.045       .  S
C645        C646   1.402       .  A
C645        C650   1.415       .  A
C645        H652   1.081       .  S
C646        C647   1.416   1_554  A
C647        C648   1.399       .  A
C647        N654   1.442       .  S
C648        C649   1.406   1_556  A
C648        H653   1.060       .  S
C649        C650   1.436       .  A
C650        N651   1.436       .  S
N651        H655   1.040       .  S
N651        H656   1.042       .  S
N654        H657   1.043       .  S
N654        H658   1.046       .  S
C659        C660   1.397       .  A
C659        C664   1.414       .  A
C659        H666   1.083       .  S
C660        C661   1.422       .  A
C661        C662   1.410       .  A
C661        N668   1.439       .  S
C662        C663   1.410       .  A
C662        H667   1.063       .  S
C663        C664   1.440       .  A
C664        N665   1.435       .  S
N665        H669   1.046       .  S
N665        H670   1.035       .  S
N668        H671   1.043       .  S
N668        H672   1.046       .  S
C673        C674   1.394       .  A
C673        C678   1.403       .  A
C673        H680   1.086       .  S
C674        C675   1.413       .  A
C675        C676   1.415       .  A
C675        N682   1.438       .  S
C676        C677   1.429       .  A
C676        H681   1.083       .  S
C677        C678   1.421       .  A
C678        N679   1.413       .  S
N679        H683   1.046       .  S
N679        H684   1.046       .  S
N682        H685   1.044       .  S
N682        H686   1.045       .  S
C687        C688   1.419   1_545  A
C687        C692   1.396   1_545  A
C687        H694   1.082       .  S
C688        C689   1.400       .  A
C689        C690   1.402       .  A
C689        N696   1.430       .  S
C690        C691   1.436       .  A
C690        H695   1.083       .  S
C691        C692   1.395       .  A
C692        N693   1.433       .  S
N693        H697   1.046       .  S
N693        H698   1.043   1_565  S
N696        H699   1.045       .  S
N696        H700   1.040       .  S
C701        C702   1.404   1_545  A
C701        C706   1.406       .  A
C701        H708   1.056       .  S
C702        C703   1.435       .  A
C703        C704   1.408       .  A
C703        N710   1.424       .  S
C704        C705   1.391   1_565  A
C704        H709   1.084       .  S
C705        C706   1.412       .  A
C706        N707   1.434       .  S
N707        H711   1.044       .  S
N707        H712   1.046       .  S
N710        H713   1.035       .  S
N710        H714   1.043       .  S
C715        C716   1.429       .  A
C715        C720   1.403       .  A
C715        H722   1.077       .  S
C716        C717   1.433       .  A
C717        C718   1.404       .  A
C717        N724   1.430       .  S
C718        C719   1.393       .  A
C718        H723   1.078       .  S
C719        C720   1.404       .  A
C720        N721   1.438       .  S
N721        H725   1.044       .  S
N721        H726   1.044       .  S
N724        H727   1.044       .  S
N724        H728   1.040       .  S
C729        C730   1.393       .  A
C729        C734   1.407       .  A
C729        H736   1.086       .  S
C730        C731   1.401       .  A
C731        C732   1.404       .  A
C731        N738   1.429       .  S
C732        C733   1.418       .  A
C732        H737   1.077       .  S
C733        C734   1.423       .  A
C734        N735   1.412       .  S
N735        H739   1.045       .  S
N735        H740   1.046       .  S
N738        H741   1.044       .  S
N738        H742   1.043       .  S
C743        C744   1.390       .  A
C743        C748   1.407       .  A
C743        H750   1.085       .  S
C744        C745   1.413       .  A
C745        C746   1.407       .  A
C745        N752   1.438       .  S
C746        C747   1.419       .  A
C746        H751   1.071       .  S
C747        C748   1.436       .  A
C748        N749   1.427       .  S
N749        H753   1.045       .  S
N749        H754   1.032       .  S
N752        H755   1.045       .  S
N752        H756   1.045       .  S
C757        C758   1.411   1_556  A
C757        C762   1.403       .  A
C757        H764   1.069       .  S
C758        C759   1.449       .  A
C759        C760   1.402       .  A
C759        N766   1.432       .  S
C760        C761   1.381       .  A
C760        H765   1.085       .  S
C761        C762   1.414   1_554  A
C762        N763   1.436       .  S
N763        H767   1.046       .  S
N763        H768   1.041       .  S
N766        H769   1.042       .  S
N766        H770   1.041       .  S
C771        C772   1.407   1_554  A
C771        C776   1.394       .  A
C771        H778   1.066       .  S
C772        C773   1.439       .  A
C773        C774   1.403       .  A
C773        N780   1.423       .  S
C774        C775   1.394       .  A
C774        H779   1.085       .  S
C775        C776   1.417   1_556  A
C776        N777   1.437       .  S
N777        H781   1.046       .  S
N777        H782   1.039       .  S
N780        H783   1.034       .  S
N780        H784   1.033       .  S
C785        C786   1.400       .  A
C785        C790   1.404       .  A
C785        H792   1.087       .  S
C786        C787   1.410       .  A
C787        C788   1.424       .  A
C787        N794   1.434       .  S
C788        C789   1.432       .  A
C788        H793   1.074       .  S
C789        C790   1.400       .  A
C790        N791   1.405       .  S
N791        H795   1.046       .  S
N791        H796   1.041       .  S
N794        H797   1.045       .  S
N794        H798   1.045       .  S
C799        C800   1.395   1_655  A
C799        C804   1.400       .  A
C799        H806   1.059       .  S
C800        C801   1.439       .  A
C801        C802   1.421       .  A
C801        N808   1.428       .  S
C802        C803   1.399       .  A
C802        H807   1.084       .  S
C803        C804   1.417   1_455  A
C804        N805   1.431       .  S
N805        H809   1.046       .  S
N805        H810   1.043       .  S
N808        H811   1.042       .  S
N808        H812   1.043       .  S
C813        C814   1.398   1_455  A
C813        C818   1.399       .  A
C813        H820   1.067       .  S
C814        C815   1.451       .  A
C815        C816   1.414       .  A
C815        N822   1.444       .  S
C816        C817   1.394       .  A
C816        H821   1.084       .  S
C817        C818   1.421   1_655  A
C818        N819   1.440       .  S
N819        H823   1.045       .  S
N819        H824   1.039       .  S
N822        H825   1.036       .  S
N822        H826   1.045       .  S
C827        C828   1.427       .  A
C827        C832   1.413       .  A
C827        H834   1.081       .  S
C828        C829   1.406       .  A
C829        C830   1.409       .  A
C829        N836   1.434       .  S
C830        C831   1.415       .  A
C830        H835   1.084       .  S
C831        C832   1.411       .  A
C832        N833   1.427       .  S
N833        H837   1.046       .  S
N833        H838   1.044       .  S
N836        H839   1.046       .  S
N836        H840   1.046       .  S
C841        C842   1.387   1_655  A
C841        C846   1.398       .  A
C841        H848   1.081       .  S
C842        C843   1.421       .  A
C843        C844   1.406       .  A
C843        N850   1.438       .  S
C844        C845   1.405   1_455  A
C844        H849   1.067       .  S
C845        C846   1.441       .  A
C846        N847   1.432       .  S
N847        H851   1.040       .  S
N847        H852   1.041       .  S
N850        H853   1.043       .  S
N850        H854   1.046       .  S
C855        C856   1.428       .  A
C855        C860   1.417       .  A
C855        H862   1.079       .  S
C856        C857   1.419   1_455  A
C857        C858   1.406       .  A
C857        N864   1.409       .  S
C858        C859   1.391   1_655  A
C858        H863   1.086       .  S
C859        C860   1.419       .  A
C860        N861   1.437       .  S
N861        H865   1.045       .  S
N861        H866   1.044       .  S
N864        H867   1.046       .  S
N864        H868   1.043       .  S
C869        C870   1.424       .  A
C869        C874   1.412       .  A
C869        H876   1.074       .  S
C870        C871   1.419       .  A
C871        C872   1.409       .  A
C871        N878   1.415       .  S
C872        C873   1.397       .  A
C872        H877   1.086       .  S
C873        C874   1.414       .  A
C874        N875   1.430       .  S
N875        H879   1.044       .  S
N875        H880   1.046       .  S
N878        H881   1.042       .  S
N878        H882   1.046       .  S
C883        C884   1.393       .  A
C883        C888   1.401       .  A
C883        H890   1.086       .  S
C884        C885   1.405       .  A
C885        C886   1.409       .  A
C885        N892   1.427       .  S
C886        C887   1.425       .  A
C886        H891   1.080       .  S
C887        C888   1.416       .  A
C888        N889   1.404       .  S
N889        H893   1.046       .  S
N889        H894   1.045       .  S
N892        H895   1.046       .  S
N892        H896   1.043       .  S
C897        C898   1.400       .  A
C897        C902   1.420       .  A
C897        H904   1.084       .  S
C898        C899   1.396       .  A
C899        C900   1.399       .  A
C899        N906   1.433       .  S
C900        C901   1.405       .  A
C900        H905   1.052       .  S
C901        C902   1.445       .  A
C902        N903   1.434       .  S
N903        H907   1.042       .  S
N903        H908   1.042       .  S
N906        H909   1.045       .  S
N906        H910   1.045       .  S
C911        C912   1.392       .  A
C911        C916   1.415       .  A
C911        H918   1.085       .  S
C912        C913   1.406   1_554  A
C913        C914   1.411       .  A
C913        N920   1.432       .  S
C914        C915   1.407   1_556  A
C914        H919   1.060       .  S
C915        C916   1.451       .  A
C916        N917   1.437       .  S
N917        H921   1.045       .  S
N917        H922   1.031       .  S
N920        H923   1.046       .  S
N920        H924   1.044       .  S
C925        C926   1.387   1_556  A
C925        C930   1.400       .  A
C925        H932   1.086       .  S
C926        C927   1.413       .  A
C927        C928   1.391       .  A
C927        N934   1.432       .  S
C928        C929   1.404   1_554  A
C928        H933   1.057       .  S
C929        C930   1.452       .  A
C930        N931   1.435       .  S
N931        H935   1.044       .  S
N931        H936   1.035       .  S
N934        H937   1.042       .  S
N934        H938   1.043       .  S
C939        C940   1.383       .  A
C939        C944   1.404       .  A
C939        H946   1.083       .  S
C940        C941   1.406       .  A
C941        C942   1.398       .  A
C941        N948   1.429       .  S
C942        C943   1.401       .  A
C942        H947   1.058       .  S
C943        C944   1.461       .  A
C944        N945   1.436       .  S
N945        H949   1.043       .  S
N945        H950   1.027       .  S
N948        H951   1.044       .  S
N948        H952   1.045       .  S
C953        C954   1.409       .  A
C953        C958   1.400       .  A
C953        H960   1.056       .  S
C954        C955   1.445       .  A
C955        C956   1.417       .  A
C955        N962   1.436       .  S
C956        C957   1.397       .  A
C956        H961   1.074       .  S
C957        C958   1.407       .  A
C958        N959   1.433       .  S
N959        H963   1.046       .  S
N959        H964   1.044       .  S
N962        H965   1.040       .  S
N962        H966   1.041       .  S
C967        C968   1.406   1_554  A
C967        C972   1.414       .  A
C967        H974   1.071       .  S
C968        C969   1.441       .  A
C969        C970   1.397       .  A
C969        N976   1.425       .  S
C970        C971   1.379       .  A
C970        H975   1.085       .  S
C971        C972   1.422   1_556  A
C972        N973   1.435       .  S
N973        H977   1.046       .  S
N973        H978   1.039       .  S
N976        H979   1.042       .  S
N976        H980   1.041       .  S
C981        C982   1.417   1_554  A
C981        C986   1.408       .  A
C981        H988   1.086       .  S
C982        C983   1.417       .  A
C983        C984   1.414       .  A
C983        N990   1.434       .  S
C984        C985   1.421       .  A
C984        H989   1.082       .  S
C985        C986   1.399   1_556  A
C986        N987   1.434       .  S
N987        H991   1.046   1_554  S
N987        H992   1.046       .  S
N990        H993   1.044       .  S
N990        H994   1.043       .  S
C995        C996   1.431       .  A
C995       C1000   1.410       .  A
C995       H1002   1.082       .  S
C996        C997   1.407       .  A
C997        C998   1.407       .  A
C997       N1004   1.432       .  S
C998        C999   1.416       .  A
C998       H1003   1.083       .  S
C999       C1000   1.404       .  A
C1000      N1001   1.429       .  S
N1001      H1005   1.038       .  S
N1001      H1006   1.042       .  S
N1004      H1007   1.046       .  S
N1004      H1008   1.046       .  S
