geometry optimzed in LAMMPS
_audit_creation_date              2020-11-30 
_audit_creation_method            'lammps2cif' 
_symmetry_space_group_name_H-M    'P1' 
_symmetry_Int_Tables_number       1 
_symmetry_cell_setting            triclinic 
loop_ 
_symmetry_equiv_pos_as_xyz 
  x,y,z 
_cell_length_a                    36.42502271 
_cell_length_b                    35.65283415117362 
_cell_length_c                    35.975247930675984 
_cell_angle_alpha                 91.74997665999832 
_cell_angle_beta                  90.1678660498209 
_cell_angle_gamma                 89.93085627257295 
loop_ 
_atom_site_label 
_atom_site_type_symbol 
_atom_site_fract_x 
_atom_site_fract_y 
_atom_site_fract_z 
_atom_site_charge 
O1          O  0.56744982  0.45172928  0.52792065    -0.79600
O2          O  0.46233599  0.52043701  0.41994925    -0.64300
O3          O  0.52754310  0.51029207  0.50215386    -1.10900
C4          C  0.42423214  0.45197269  0.55355193     1.07300
O5          O  0.42405676  0.54573573  0.46067880    -0.77500
O6          O  0.42791407  0.54752028  0.53351883    -0.65100
Ni7        Ni  0.57540864  0.49113432  0.49476855     1.34900
C8          C  0.45312028  0.55195982  0.55760734     0.86000
O9          O  0.53152193  0.54470788  0.43408232    -0.78100
O10         O  0.58532042  0.53071069  0.46188569    -0.88300
C11         C  0.43327538  0.53867387  0.42738609     0.85600
O12         O  0.56741557  0.45523521  0.45471252    -0.66500
O13         O  0.40546976  0.47328050  0.53300756    -0.85800
C14         C  0.54102797  0.44735445  0.43276625     0.86400
C15         C  0.56565734  0.55027612  0.44038363     1.08000
H16         H  0.45947320  0.46266856  0.47781811     0.39800
O17         O  0.46320259  0.48734683  0.48912584    -1.08500
O18         O  0.47970115  0.52849341  0.56002336    -0.65100
Ni19       Ni  0.49439676  0.48232935  0.53140511     1.26300
O20         O  0.51183780  0.46747871  0.43237821    -0.65400
O21         O  0.45916249  0.45285563  0.55682316    -0.77700
C22         C  0.55951583  0.45770425  0.56178230     0.85800
O23         O  0.52978548  0.47447950  0.57055756    -0.64800
Ni24       Ni  0.41632740  0.50926978  0.49676466     1.27400
Ni25       Ni  0.49677742  0.51439214  0.45961913     1.26100
H26         H  0.53014249  0.53505056  0.51344346     0.40300
O27         O  0.56094326  0.29774022  0.21046176    -0.79600
O28         O  0.46289934  0.21856595  0.31864601    -0.64300
O29         O  0.52107252  0.23783233  0.23313703    -1.10900
C30         C  0.41659951  0.31231981  0.20078506     1.07300
O31         O  0.41728415  0.20478966  0.27998590    -0.77500
O32         O  0.41437328  0.21404899  0.20636299    -0.65100
Ni33       Ni  0.57027785  0.25445658  0.23857916     1.34900
C34         C  0.43807270  0.20972573  0.18063065     0.86000
O35         O  0.53142936  0.19332485  0.29589783    -0.78100
O36         O  0.58300468  0.21130646  0.26691390    -0.88300
C37         C  0.43050092  0.20647286  0.31270535     0.85600
O38         O  0.56540242  0.28716329  0.28161550    -0.66500
O39         O  0.39823746  0.29002563  0.22064327    -0.85800
C40         C  0.54123502  0.29238893  0.30656420     0.86400
C41         C  0.56575582  0.18908212  0.28787364     1.08000
H42         H  0.45890492  0.28527399  0.27004821     0.39800
O43         O  0.45937485  0.26215938  0.25531429    -1.08500
O44         O  0.46672597  0.23036584  0.17940375    -0.65100
Ni45       Ni  0.48638823  0.27171318  0.21145707     1.26300
O46         O  0.51312733  0.27106691  0.30854462    -0.65400
O47         O  0.45078577  0.30768839  0.19352797    -0.77700
C48         C  0.54806118  0.29756788  0.17776446     0.85800
O49         O  0.51743419  0.28233064  0.17031733    -0.64800
Ni50       Ni  0.40965284  0.24703869  0.24972824     1.27400
Ni51       Ni  0.49435098  0.22853666  0.27733187     1.26100
H52         H  0.52165856  0.21475001  0.21828790     0.40300
C53         C  0.79173563  0.79304966  0.74998859     0.81500
N54         N  0.81036436  0.76531186  0.76682408    -0.76800
C55         C  0.79770355  0.75095486  0.79875070     0.83900
N56         N  0.76619177  0.76438520  0.81419664    -0.76800
C57         C  0.74708771  0.79213317  0.79775321     0.84000
N58         N  0.75999555  0.80671220  0.76554649    -0.78500
C59         C  0.79616085  0.99352458  0.98086602     0.81500
N60         N  0.76521445  0.97829917  0.96570807    -0.76800
C61         C  0.74862292  0.94881566  0.98176098     0.83900
N62         N  0.76350028  0.93435530  0.01320455    -0.76800
C63         C  0.79467737  0.94978699  0.02841131     0.84000
N64         N  0.81081638  0.97921940  0.01203092    -0.78500
C65         C  0.97481798  0.74567403  0.98101604     0.81500
N66         N  0.00461247  0.76477555  0.96933746    -0.76800
C67         C  0.01761362  0.79444472  0.98997827     0.83900
N68         N  0.00044391  0.80521267  0.02209081    -0.76800
C69         C  0.97062542  0.78585264  0.03361475     0.84000
N70         N  0.95780146  0.75638548  0.01294605    -0.78500
C71         C  0.97505559  0.99809639  0.79648887     0.81500
N72         N  0.96250908  0.97976776  0.76551278    -0.76800
C73         C  0.98119780  0.94981337  0.75123535     0.83900
N74         N  0.01210811  0.93774522  0.76834221    -0.76800
C75         C  0.02462499  0.95633631  0.79934318     0.84000
N76         N  0.00588332  0.98621659  0.81357666    -0.78500
O77         O  0.11758072  0.92554388  0.89052552    -0.73200
O78         O  0.18898298  0.87220997  0.94865824    -0.73200
O79         O  0.19051832  0.92180246  0.88753674    -0.73300
O80         O  0.11570492  0.87893307  0.94907216    -0.73300
O81         O  0.11122036  0.83007510  0.90898402    -0.73200
O82         O  0.18727144  0.87172927  0.84906628    -0.73200
O83         O  0.18391566  0.82341289  0.90878050    -0.73200
O84         O  0.11421060  0.87627524  0.85077162    -0.73300
Ni85       Ni  0.15389917  0.90142705  0.92041106     1.25400
Ni86       Ni  0.14945891  0.84869236  0.87801666     1.25400
C87         C  0.10447590  0.90936012  0.86110907     0.89000
C88         C  0.19350264  0.83706649  0.94067843     0.88900
C89         C  0.19807324  0.90548926  0.85614054     0.89000
C90         C  0.10113540  0.84760697  0.93881722     0.89100
O91         O  0.92467227  0.85886961  0.13388490    -0.73200
O92         O  0.87128575  0.91547693  0.20825483    -0.73200
O93         O  0.92202783  0.85284637  0.20710552    -0.73300
O94         O  0.87500033  0.91533795  0.13339091    -0.73300
O95         O  0.83077830  0.87227944  0.12763344    -0.73200
O96         O  0.87437187  0.81401418  0.20456161    -0.73200
O97         O  0.82420356  0.87626004  0.20114764    -0.73200
O98         O  0.88018170  0.81583508  0.13028277    -0.73300
Ni99       Ni  0.89985787  0.88717858  0.17161716     1.25400
Ni100      Ni  0.85073607  0.84313928  0.16647896     1.25400
C101        C  0.91131640  0.82859157  0.11987548     0.89000
C102        C  0.83681401  0.90888681  0.21104566     0.88900
C103        C  0.90815897  0.82010981  0.21283669     0.89000
C104        C  0.84551276  0.90277407  0.11760580     0.89100
O105        O  0.93710131  0.86158530  0.65519722    -0.73200
O106        O  0.88118365  0.81457704  0.57558713    -0.73200
O107        O  0.94348965  0.86346218  0.58116110    -0.73300
O108        O  0.87689963  0.81637807  0.65064757    -0.73300
O109        O  0.84037908  0.86657611  0.64906830    -0.73200
O110        O  0.90607251  0.91288960  0.58114701    -0.73200
O111        O  0.84574343  0.86552194  0.57464463    -0.73200
O112        O  0.90006470  0.91156158  0.65474286    -0.73300
Ni113      Ni  0.91097482  0.83703139  0.61515379     1.25400
Ni114      Ni  0.87176721  0.89071436  0.61439904     1.25400
C115        C  0.92782957  0.89419426  0.66764192     0.89000
C116        C  0.85202030  0.83121861  0.56467267     0.88900
C117        C  0.93755159  0.89825993  0.57419647     0.89000
C118        C  0.84819552  0.83446774  0.66183109     0.89100
O119        O  0.88958118  0.65500344  0.93629562    -0.73200
O120        O  0.82783780  0.58386145  0.88318057    -0.73200
O121        O  0.88125329  0.57987664  0.93703812    -0.73300
O122        O  0.83715411  0.65880437  0.88309374    -0.73300
O123        O  0.88029784  0.65188102  0.83941389    -0.73200
O124        O  0.92580772  0.57365589  0.89485051    -0.73200
O125        O  0.87248464  0.57706888  0.84115235    -0.73200
O126        O  0.93282901  0.64874507  0.89262461    -0.73300
Ni127      Ni  0.85746557  0.61944118  0.91157756     1.25400
Ni128      Ni  0.90436135  0.61237055  0.86546062     1.25400
C129        C  0.92088782  0.66373663  0.92291339     0.89000
C130        C  0.83966102  0.57053960  0.85199359     0.88900
C131        C  0.91144440  0.56488310  0.92584135     0.89000
C132        C  0.85140112  0.66810019  0.85229457     0.89100
O133        O  0.64308459  0.82187035  0.88163607    -0.73200
O134        O  0.57007953  0.87955270  0.93954625    -0.73200
O135        O  0.56852148  0.82278121  0.88040326    -0.73300
O136        O  0.64420135  0.87377786  0.93850835    -0.73300
O137        O  0.64615608  0.91960787  0.89776674    -0.73200
O138        O  0.57221555  0.86650518  0.83789061    -0.73200
O139        O  0.57206716  0.92347133  0.89710643    -0.73200
O140        O  0.64555678  0.86790565  0.84115182    -0.73300
Ni141      Ni  0.60572254  0.84791860  0.91146482     1.25400
Ni142      Ni  0.60827960  0.89600210  0.86709859     1.25400
C143        C  0.65706244  0.83642042  0.85255560     0.89000
C144        C  0.56295031  0.91344389  0.92989339     0.88900
C145        C  0.56258671  0.83312846  0.84697507     0.89000
C146        C  0.65826911  0.90426050  0.92726400     0.89100
O147        O  0.87701064  0.09220962  0.93775326    -0.73200
O148        O  0.92385730  0.16499350  0.87663588    -0.73200
O149        O  0.87296737  0.16778483  0.93474534    -0.73300
O150        O  0.92701707  0.09051536  0.88171897    -0.73300
O151        O  0.88200892  0.08497270  0.83954018    -0.73200
O152        O  0.82799779  0.16020132  0.89296176    -0.73200
O153        O  0.87724945  0.15942208  0.83642218    -0.73200
O154        O  0.83243435  0.08541632  0.89530694    -0.73300
Ni155      Ni  0.90187317  0.12932035  0.90932609     1.25400
Ni156      Ni  0.85330825  0.12246984  0.86469049     1.25400
C157        C  0.84721202  0.07671776  0.92609344     0.89000
C158        C  0.90885878  0.17241500  0.84535526     0.88900
C159        C  0.84047125  0.17514659  0.92328916     0.89000
C160        C  0.91367228  0.07593640  0.85169896     0.89100
O161        O  0.27991301  0.54968690  0.31989868    -0.79600
O162        O  0.16282845  0.45946090  0.23737760    -0.64300
O163        O  0.25144353  0.48691547  0.28873785    -1.10900
C164        C  0.27426540  0.55022827  0.17497587     1.07300
O165        O  0.20247324  0.44180121  0.19469427    -0.77500
O166        O  0.26929750  0.45769235  0.17579316    -0.65100
Ni167      Ni  0.25029387  0.50999664  0.33673121     1.34900
C168        C  0.29509059  0.45205218  0.19856852     0.86000
O169        O  0.18962658  0.44503995  0.30668346    -0.78100
O170        O  0.21955842  0.47092908  0.35615418    -0.88300
C171        C  0.17004098  0.44198803  0.20692115     0.85600
O172        O  0.21028192  0.54364921  0.33045241    -0.66500
O173        O  0.24895730  0.52985151  0.16022790    -0.85800
C174        C  0.18291041  0.54475002  0.30880897     0.86400
C175        C  0.19769416  0.44660307  0.34147632     1.08000
H176        H  0.21189209  0.52854571  0.22662613     0.39800
O177        O  0.22533017  0.50517975  0.22689732    -1.08500
O178        O  0.29807579  0.47110399  0.22913309    -0.65100
Ni179      Ni  0.27143741  0.51560322  0.24891001     1.26300
O180        O  0.17690406  0.51899133  0.28393753    -0.65400
O181        O  0.28717943  0.54575126  0.20788535    -0.77700
C182        C  0.31164201  0.54555912  0.30623763     0.85800
O183        O  0.31586090  0.52783966  0.27549376    -0.64800
Ni184      Ni  0.22484174  0.48583144  0.17776882     1.27400
Ni185      Ni  0.20566914  0.47504569  0.26575865     1.26100
H186        H  0.26533076  0.46386735  0.29060448     0.40300
O187        O  0.31628521  0.29147134  0.55720381    -0.79600
O188        O  0.21797415  0.17466503  0.48239835    -0.64300
O189        O  0.27669923  0.26385978  0.49844284    -1.10900
C190        C  0.17314096  0.30484701  0.56812547     1.07300
O191        O  0.17585465  0.21468980  0.46602852    -0.77500
O192        O  0.17114775  0.28834086  0.47365188    -0.65100
Ni193      Ni  0.32600784  0.26103266  0.51423238     1.34900
C194        C  0.19366816  0.31502467  0.46996651     0.86000
O195        O  0.28633371  0.19712245  0.45697668    -0.78100
O196        O  0.33765271  0.23045620  0.47149821    -0.88300
C197        C  0.18581910  0.18106778  0.46993901     0.85600
O198        O  0.32427550  0.21839915  0.54532361    -0.66500
O199        O  0.15498383  0.28170668  0.54754225    -0.85800
C200        C  0.30142809  0.19240702  0.55108556     0.86400
C201        C  0.32000244  0.20638183  0.45153532     1.08000
H202        H  0.21512723  0.23098586  0.54712374     0.39800
O203        O  0.21572084  0.24372429  0.52375060    -1.08500
O204        O  0.22249520  0.31837258  0.49020789    -0.65100
Ni205      Ni  0.24289743  0.28923839  0.53140006     1.26300
O206        O  0.27109375  0.18981191  0.53296570    -0.65400
O207        O  0.20755110  0.31088150  0.56513606    -0.77700
C208        C  0.30556457  0.32512400  0.55541285     0.85800
O209        O  0.27453070  0.33204858  0.54104033    -0.64800
Ni210      Ni  0.16660807  0.24790576  0.50702743     1.27400
Ni211      Ni  0.25001093  0.21805244  0.49112137     1.26100
H212        H  0.27668938  0.27654151  0.47507015     0.40300
O213        O  0.58229835  0.79774909  0.71643021    -0.79600
O214        O  0.47402967  0.72914665  0.82951563    -0.64300
O215        O  0.53921580  0.74108333  0.74607952    -1.10900
C216        C  0.43493604  0.80362295  0.69880182     1.07300
O217        O  0.43507202  0.70653474  0.78815587    -0.77500
O218        O  0.43469679  0.70840271  0.71473321    -0.65100
Ni219      Ni  0.58733930  0.76078612  0.75379111     1.34900
C220        C  0.45936995  0.70184181  0.69056169     0.86000
O221        O  0.54281507  0.70533346  0.81378399    -0.78100
O222        O  0.59705933  0.72405671  0.79069329    -0.88300
C223        C  0.44390188  0.71263338  0.82178799     0.85600
O224        O  0.57748065  0.79941274  0.79124018    -0.66500
O225        O  0.41630310  0.78349256  0.72040465    -0.85800
C226        C  0.55361891  0.80351088  0.81679189     0.86400
C227        C  0.57758070  0.70328733  0.81114181     1.08000
H228        H  0.47293556  0.78945801  0.77213289     0.39800
O229        O  0.47528004  0.76480167  0.76045797    -1.08500
O230        O  0.48816078  0.72284719  0.68878451    -0.65100
Ni231      Ni  0.50530210  0.76926673  0.71709000     1.26300
O232        O  0.52593205  0.78125635  0.81867660    -0.65400
O233        O  0.46945919  0.79991637  0.69281607    -0.77700
C234        C  0.57081978  0.79317867  0.68316994     0.85800
O235        O  0.54002552  0.77695019  0.67661244    -0.64800
Ni236      Ni  0.42717221  0.74517412  0.75412618     1.27400
Ni237      Ni  0.50857779  0.73626169  0.78919929     1.26100
H238        H  0.54194893  0.71647899  0.73446627     0.40300
O239        O  0.31993476  0.78241348  0.05944223    -0.79600
O240        O  0.22104555  0.67187100  0.97358519    -0.64300
O241        O  0.28133658  0.75751095  0.99848285    -1.10900
C242        C  0.17700899  0.79466489  0.06990292     1.07300
O243        O  0.17638406  0.71107693  0.96156332    -0.77500
O244        O  0.17668718  0.78431315  0.97315048    -0.65100
Ni245      Ni  0.32948095  0.75054564  0.01762855     1.34900
C246        C  0.20078583  0.80970576  0.97028236     0.86000
O247        O  0.28963514  0.69411888  0.95217066    -0.78100
O248        O  0.34214297  0.71831104  0.97645177    -0.88300
C249        C  0.18874094  0.67790410  0.96186853     0.85600
O250        O  0.31981613  0.70962805  0.04886978    -0.66500
O251        O  0.15868421  0.77410435  0.04702254    -0.85800
C252        C  0.29591070  0.68391027  0.04897656     0.86400
C253        C  0.32454750  0.69886956  0.95208560     1.08000
H254        H  0.21780882  0.72239453  0.04268905     0.39800
O255        O  0.21872299  0.73685103  0.02044272    -1.08500
O256        O  0.22861481  0.81211732  0.99174351    -0.65100
Ni257      Ni  0.24689006  0.78114500  0.03192028     1.26300
O258        O  0.26997612  0.68161202  0.02542363    -0.65400
O259        O  0.21137024  0.80117796  0.06688301    -0.77700
C260        C  0.31031448  0.81609018  0.05591558     0.85800
O261        O  0.27869866  0.82318353  0.04317975    -0.64800
Ni262      Ni  0.16947897  0.74270446  0.00445830     1.27400
Ni263      Ni  0.25293444  0.71373001  0.98620892     1.26100
H264        H  0.28347020  0.77215738  0.97639109     0.40300
O265        O  0.06395957  0.44034544  0.04903954    -0.79600
O266        O  0.96174338  0.52571796  0.94359824    -0.64300
O267        O  0.02327218  0.50029594  0.02564533    -1.10900
C268        C  0.92039894  0.42423624  0.06024810     1.07300
O269        O  0.91306960  0.53163513  0.98051568    -0.77500
O270        O  0.91329318  0.51920875  0.05244187    -0.65100
Ni271      Ni  0.07154132  0.48184408  0.01784866     1.34900
C272        C  0.93754765  0.52766668  0.07671166     0.86000
O273        O  0.03085988  0.54791785  0.96523202    -0.78100
O274        O  0.08337351  0.52277647  0.98659467    -0.88300
C275        C  0.92971266  0.53848514  0.95054820     0.85600
O276        O  0.06214838  0.44858076  0.97602978    -0.66500
O277        O  0.90197891  0.44315813  0.03722187    -0.85800
C278        C  0.04011777  0.44927042  0.94865566     0.86400
C279        C  0.06607252  0.54747098  0.96848646     1.08000
H280        H  0.96257039  0.45326650  0.98884966     0.39800
O281        O  0.96131432  0.47607587  0.00395507    -1.08500
O282        O  0.96831660  0.51003410  0.07842512    -0.65100
Ni283      Ni  0.98894034  0.46713547  0.04844305     1.26300
O284        O  0.01385652  0.47313173  0.94739403    -0.65400
O285        O  0.95393678  0.43159473  0.06853765    -0.77700
C286        C  0.05226340  0.44189812  0.08220133     0.85800
O287        O  0.02142494  0.45721153  0.08968701    -0.64800
Ni288      Ni  0.91037750  0.48720561  0.00888088     1.27400
Ni289      Ni  0.99475079  0.51197940  0.98291934     1.26100
H290        H  0.02538997  0.52289852  0.04101874     0.40300
O291        O  0.21419668  0.07774309  0.79851983    -0.79600
O292        O  0.32934149  0.96986886  0.72340017    -0.64300
O293        O  0.24236752  0.02857023  0.74463838    -1.10900
C294        C  0.21671042  0.92609163  0.82599203     1.07300
O295        O  0.29035574  0.92329588  0.71513973    -0.77500
O296        O  0.22115945  0.91614105  0.73158149    -0.65100
Ni297      Ni  0.24419724  0.08103533  0.75523711     1.34900
C298        C  0.19566145  0.93942073  0.72556522     0.86000
O299        O  0.30339757  0.03645204  0.69620234    -0.78100
O300        O  0.27398753  0.09002651  0.71217993    -0.88300
C301        C  0.32240025  0.93638470  0.71191145     0.85600
O302        O  0.28547840  0.08028515  0.78771077    -0.66500
O303        O  0.23923578  0.90731934  0.80570994    -0.85800
C304        C  0.31252878  0.05858361  0.79268034     0.86400
C305        C  0.29549521  0.07110468  0.69090719     1.08000
H306        H  0.28323488  0.97201450  0.79398405     0.39800
O307        O  0.26813154  0.96935173  0.77194401    -1.08500
O308        O  0.19329293  0.97087550  0.74314158    -0.65100
Ni309      Ni  0.22342219  0.99553182  0.78180047     1.26300
O310        O  0.31747290  0.02826818  0.77316212    -0.65400
O311        O  0.20743349  0.96022975  0.81948138    -0.77700
C312        C  0.18426750  0.06027197  0.80273396     0.85800
O313        O  0.18077016  0.02610498  0.79212519    -0.64800
Ni314      Ni  0.26520660  0.91709811  0.76054443     1.27400
Ni315      Ni  0.28731490  0.00209136  0.73459694     1.26100
H316        H  0.22740014  0.02568201  0.72252300     0.40300
O317        O  0.69981776  0.66060000  0.47585654    -0.79600
O318        O  0.82220919  0.77546746  0.53839917    -0.64300
O319        O  0.73460416  0.71620865  0.51867422    -1.10900
C320        C  0.69687505  0.81684082  0.44796935     1.07300
O321        O  0.79509845  0.83133220  0.53550135    -0.77500
O322        O  0.72458591  0.81145383  0.54885696    -0.65100
Ni323      Ni  0.74291940  0.66463783  0.50452106     1.34900
C324        C  0.69305247  0.79641901  0.54656223     0.86000
O325        O  0.79455195  0.71143173  0.56648772    -0.78100
O326        O  0.78720343  0.65932880  0.53253078    -0.88300
C327        C  0.82225307  0.81106633  0.54393752     0.85600
O328        O  0.76840618  0.67921057  0.46121338    -0.66500
O329        O  0.70743122  0.83331623  0.47780746    -0.85800
C330        C  0.79883756  0.69633866  0.46151266     0.86400
C331        C  0.79736089  0.67600964  0.56227150     1.08000
H332        H  0.77514964  0.77650215  0.46917114     0.39800
O333        O  0.75968526  0.77689060  0.49096444    -1.08500
O334        O  0.68427681  0.77463262  0.51869108    -0.65100
Ni335      Ni  0.71576750  0.74822409  0.48074456     1.26300
O336        O  0.80850393  0.71810264  0.48899777    -0.65400
O337        O  0.70077589  0.78164909  0.44253400    -0.77700
C338        C  0.67471954  0.68064201  0.46272819     0.85800
O339        O  0.67376373  0.71635196  0.46761288    -0.64800
Ni340      Ni  0.75124681  0.82776466  0.50673566     1.27400
Ni341      Ni  0.77898206  0.74457380  0.52802492     1.26100
H342        H  0.71919384  0.71743225  0.54048312     0.40300
O343        O  0.95927157  0.69353851  0.33872343    -0.79600
O344        O  0.06857053  0.76526556  0.22991863    -0.64300
O345        O  0.98767187  0.74990894  0.29696359    -1.10900
C346        C  0.93996385  0.68161114  0.19030508     1.07300
O347        O  0.02687666  0.78407471  0.19002939    -0.77500
O348        O  0.95500127  0.77897197  0.19178303    -0.65100
Ni349      Ni  0.99516116  0.73152817  0.34552830     1.34900
C350        C  0.93338642  0.78673317  0.21858315     0.86000
O351        O  0.05512652  0.78736614  0.30220144    -0.78100
O352        O  0.03181779  0.76859954  0.35663426    -0.88300
C353        C  0.06015443  0.78172939  0.19997963     0.85600
O354        O  0.03100801  0.69406585  0.33399740    -0.66500
O355        O  0.96110938  0.70229311  0.17154460    -0.85800
C356        C  0.05506212  0.68933922  0.30894253     0.86400
C357        C  0.05289663  0.78908108  0.33775998     1.08000
H358        H  0.01270727  0.70149424  0.22882116     0.39800
O359        O  0.00105977  0.72588263  0.23151454    -1.08500
O360        O  0.93184771  0.76602218  0.24715927    -0.65100
Ni361      Ni  0.95870450  0.72007717  0.26226529     1.26300
O362        O  0.05788220  0.71141297  0.28148130    -0.65400
O363        O  0.93386639  0.68726371  0.22534657    -0.77700
C364        C  0.92632387  0.69881951  0.32919749     0.85800
O365        O  0.91911023  0.71284140  0.29773131    -0.64800
Ni366      Ni  0.99383891  0.74325935  0.18268008     1.27400
Ni367      Ni  0.02973062  0.75608546  0.26577478     1.26100
H368        H  0.97622029  0.77414971  0.30019001     0.40300
O369        O  0.42135077  0.97788924  0.03527469    -0.79600
O370        O  0.53198560  0.08591288  0.96788649    -0.64300
O371        O  0.46855717  0.00099026  0.98068011    -1.10900
C372        C  0.56491241  0.96318987  0.06076078     1.07300
O373        O  0.57661420  0.04507448  0.95595939    -0.77500
O374        O  0.57505114  0.97033699  0.96375953    -0.65100
Ni375      Ni  0.41814863  0.00731314  0.99240965     1.34900
C376        C  0.55186078  0.94399045  0.95854428     0.86000
O377        O  0.46445263  0.06639568  0.93833170    -0.78100
O378        O  0.41139539  0.03629239  0.94957985    -0.88300
C379        C  0.56421529  0.07840620  0.95575198     0.85600
O380        O  0.42015466  0.05116575  0.02506551    -0.66500
O381        O  0.58555176  0.98241925  0.04000609    -0.85800
C382        C  0.44415549  0.07579610  0.03374137     0.86400
C383        C  0.43074234  0.05852734  0.93081778     1.08000
H384        H  0.52848630  0.03496158  0.03311986     0.39800
O385        O  0.52885218  0.02059166  0.00990967    -1.08500
O386        O  0.52176909  0.94333180  0.97716933    -0.65100
Ni387      Ni  0.49919197  0.97702050  0.01636885     1.26300
O388        O  0.47540243  0.07645968  0.01694834    -0.65400
O389        O  0.53073047  0.95759763  0.05450489    -0.77700
C390        C  0.43306457  0.94449637  0.03574239     0.85800
O391        O  0.46508186  0.93651285  0.02391092    -0.64800
Ni392      Ni  0.57904612  0.01326009  0.99771201     1.27400
Ni393      Ni  0.49753580  0.04529614  0.97517428     1.26100
H394        H  0.46972857  0.98659881  0.95754447     0.40300
C395        C  0.25838281  0.79070671  0.29291913     0.81500
N396        N  0.27155312  0.81337391  0.26648991    -0.76800
C397        C  0.30311727  0.80395004  0.24866282     0.83900
N398        N  0.32141014  0.77239002  0.25717705    -0.76800
C399        C  0.30805280  0.75006865  0.28349795     0.84000
N400        N  0.27669288  0.75918164  0.30158339    -0.78500
O401        O  0.38606115  0.64411720  0.31294823    -0.73200
O402        O  0.42618928  0.56357980  0.36738005    -0.73200
O403        O  0.37316110  0.56973954  0.31281963    -0.73300
O404        O  0.43721415  0.63742768  0.36751941    -0.73300
O405        O  0.39336354  0.64605695  0.41039686    -0.73200
O406        O  0.33133626  0.58033539  0.35722409    -0.73200
O407        O  0.38249649  0.57329283  0.41014998    -0.73200
O408        O  0.34327329  0.65355657  0.35677129    -0.73300
Ni409      Ni  0.40724006  0.60321942  0.33833666     1.25400
Ni410      Ni  0.36103513  0.61343461  0.38499066     1.25400
C411        C  0.35830290  0.66185414  0.32613256     0.89000
C412        C  0.41255439  0.55797635  0.39941225     0.88900
C413        C  0.34082472  0.56545371  0.32606458     0.89000
C414        C  0.42561734  0.65162397  0.39850713     0.89100
C415        C  0.47616373  0.97590185  0.23124956     0.81500
N416        N  0.49948634  0.95427005  0.25070895    -0.76800
C417        C  0.50818206  0.96437775  0.28622490     0.83900
N418        N  0.49293372  0.99531559  0.30250160    -0.76800
C419        C  0.46948746  0.01658018  0.28291188     0.84000
N420        N  0.46070728  0.00665313  0.24751161    -0.78500
O421        O  0.59646143  0.81986894  0.38798900    -0.73200
O422        O  0.66315937  0.88165521  0.33572422    -0.73200
O423        O  0.66840663  0.82650293  0.38906308    -0.73300
O424        O  0.59065934  0.87280578  0.33546733    -0.73300
O425        O  0.58649597  0.91790691  0.37985177    -0.73200
O426        O  0.66284719  0.87079258  0.43395680    -0.73200
O427        O  0.65915903  0.92474010  0.38196497    -0.73200
O428        O  0.59095040  0.86517387  0.43210944    -0.73300
Ni429      Ni  0.63002584  0.84863733  0.36026563     1.25400
Ni430      Ni  0.62479474  0.89631449  0.40845810     1.25400
C431        C  0.58456872  0.83211266  0.41945757     0.89000
C432        C  0.67050658  0.91428518  0.34975573     0.88900
C433        C  0.67564641  0.83921246  0.42195911     0.89000
C434        C  0.57662657  0.90327172  0.34852973     0.89100
O435        O  0.33505873  0.88821585  0.15170020    -0.73200
O436        O  0.37925549  0.93013223  0.06738186    -0.73200
O437        O  0.32480921  0.87811633  0.07865065    -0.73300
O438        O  0.38857444  0.93879121  0.14035575    -0.73300
O439        O  0.43042217  0.89278973  0.13967261    -0.73200
O440        O  0.36867617  0.83428079  0.07628270    -0.73200
O441        O  0.42347401  0.88667449  0.06653865    -0.73200
O442        O  0.37680904  0.84213980  0.14969294    -0.73300
Ni443      Ni  0.35535919  0.91045456  0.10924579     1.25400
Ni444      Ni  0.40123435  0.86216695  0.10765881     1.25400
C445        C  0.34867871  0.85822469  0.16432588     0.89000
C446        C  0.41061990  0.91814656  0.05624146     0.88900
C447        C  0.33570835  0.84485806  0.06997854     0.89000
C448        C  0.41981706  0.92556930  0.14979255     0.89100
C449        C  0.28759593  0.01644293  0.47347054     0.81500
N450        N  0.25909575  0.99787220  0.45708413    -0.76800
C451        C  0.24427058  0.96802803  0.47398224     0.83900
N452        N  0.25855512  0.95621996  0.50628059    -0.76800
C453        C  0.28692989  0.97496096  0.52234948     0.84000
N454        N  0.30180217  0.00471841  0.50577976    -0.78500
C455        C  0.47559011  0.72235848  0.46960444     0.81500
N456        N  0.45325099  0.74013240  0.49467773    -0.76800
C457        C  0.46519560  0.77193313  0.51252879     0.83900
N458        N  0.49819949  0.78653572  0.50411991    -0.76800
C459        C  0.51994388  0.76864479  0.47900609     0.84000
N460        N  0.50849639  0.73694856  0.46146826    -0.78500
O461        O  0.32969020  0.88549378  0.60409966    -0.73200
O462        O  0.38119916  0.82306265  0.66963342    -0.73200
O463        O  0.33388706  0.88151699  0.67724688    -0.73300
O464        O  0.37645825  0.82709461  0.59647287    -0.73300
O465        O  0.42400497  0.86674494  0.59770862    -0.73200
O466        O  0.37939484  0.92337262  0.67887574    -0.73200
O467        O  0.42850062  0.86295131  0.67122807    -0.73200
O468        O  0.37681168  0.92572036  0.60496381    -0.73300
Ni469      Ni  0.35370533  0.85292949  0.63699987     1.25400
Ni470      Ni  0.40404164  0.89619978  0.63845033     1.25400
C471        C  0.34452289  0.91613476  0.59463475     0.89000
C472        C  0.41409541  0.83143046  0.67903301     0.88900
C473        C  0.34742045  0.91275252  0.68914451     0.89000
C474        C  0.40766674  0.83735054  0.58461463     0.89100
O475        O  0.37961429  0.10516212  0.32984630    -0.73200
O476        O  0.32648514  0.17533577  0.39205981    -0.73200
O477        O  0.37609356  0.17947967  0.33385252    -0.73300
O478        O  0.33075761  0.10149918  0.38589615    -0.73300
O479        O  0.37581263  0.10439763  0.42828179    -0.73200
O480        O  0.42446657  0.17912327  0.37213062    -0.73200
O481        O  0.37496717  0.17911337  0.43011903    -0.73200
O482        O  0.42494989  0.10477499  0.37191187    -0.73300
Ni483      Ni  0.35157063  0.14066011  0.35889506     1.25400
Ni484      Ni  0.40170598  0.14213968  0.40217727     1.25400
C485        C  0.41096896  0.09371644  0.34096031     0.89000
C486        C  0.34139527  0.18650432  0.42274649     0.88900
C487        C  0.40922977  0.18870171  0.34173273     0.89000
C488        C  0.34518695  0.09123010  0.41619985     0.89100
O489        O  0.15392514  0.91104007  0.39347205    -0.73200
O490        O  0.08352355  0.84736306  0.34511274    -0.73200
O491        O  0.08172974  0.90295397  0.39994882    -0.73300
O492        O  0.15583894  0.85622559  0.34068466    -0.73300
O493        O  0.16306284  0.81313537  0.38400352    -0.73200
O494        O  0.08996709  0.86213181  0.44507313    -0.73200
O495        O  0.08967951  0.80604339  0.39013723    -0.73200
O496        O  0.16273876  0.86856988  0.43709769    -0.73300
Ni497      Ni  0.11815264  0.88081125  0.36828797     1.25400
Ni498      Ni  0.12642267  0.83571504  0.41562474     1.25400
C499        C  0.16971330  0.90030401  0.42301057     0.89000
C500        C  0.07633097  0.81552867  0.35872499     0.88900
C501        C  0.07634082  0.89270864  0.43337894     0.89000
C502        C  0.17169565  0.82716571  0.35289497     0.89100
O503        O  0.78216033  0.04019652  0.33549997    -0.79600
O504        O  0.67480900  0.96396846  0.22297541    -0.64300
O505        O  0.75495781  0.98142654  0.29108135    -1.10900
C506        C  0.80303419  0.04276122  0.18627676     1.07300
O507        O  0.71591357  0.94107951  0.18388505    -0.77500
O508        O  0.78780050  0.94494601  0.18901776    -0.65100
Ni509      Ni  0.74696221  0.00135539  0.34004611     1.34900
C510        C  0.81037051  0.94131401  0.21557574     0.86000
O511        O  0.68834021  0.94274128  0.29406652    -0.78100
O512        O  0.71218026  0.96298236  0.34903281    -0.88300
C513        C  0.68276327  0.94721825  0.19225600     0.85600
O514        O  0.70949836  0.03727208  0.32937323    -0.66500
O515        O  0.78401814  0.01941301  0.16689629    -0.85800
C516        C  0.68630669  0.04149321  0.30341273     0.86400
C517        C  0.69191529  0.94116480  0.32934215     1.08000
H518        H  0.72964081  0.02576675  0.22226284     0.39800
O519        O  0.74161442  0.00202768  0.22558052    -1.08500
O520        O  0.81200792  0.96526609  0.24279087    -0.65100
Ni521      Ni  0.78307045  0.01043320  0.25745950     1.26300
O522        O  0.68466849  0.01875084  0.27506663    -0.65400
O523        O  0.80721079  0.04137043  0.22165730    -0.77700
C524        C  0.81497458  0.03545879  0.32492983     0.85800
O525        O  0.82189739  0.02038848  0.29315858    -0.64800
Ni526      Ni  0.75016085  0.98033564  0.17730796     1.27400
Ni527      Ni  0.71327402  0.97349055  0.25913182     1.26100
H528        H  0.76688942  0.95740378  0.29377545     0.40300
O529        O  0.78333585  0.20296560  0.93019410    -0.79600
O530        O  0.67184607  0.28008403  0.03030525    -0.64300
O531        O  0.76010117  0.26107035  0.97599948    -1.10900
C532        C  0.78900904  0.18191632  0.07733733     1.07300
O533        O  0.70307051  0.28616412  0.08298265    -0.77500
O534        O  0.77499239  0.27976684  0.08492856    -0.65100
Ni535      Ni  0.75738112  0.24873916  0.92431822     1.34900
C536        C  0.80285925  0.28384509  0.06437802     0.86000
O537        O  0.69969763  0.30938093  0.96689754    -0.78100
O538        O  0.73099639  0.29419645  0.91459954    -0.88300
C539        C  0.67370693  0.28950308  0.06447885     0.85600
O540        O  0.71369539  0.21907400  0.92342383    -0.66500
O541        O  0.76769125  0.20349850  0.09599841    -0.85800
C542        C  0.68771002  0.21391827  0.94603293     0.86400
C543        C  0.70919057  0.31558344  0.93316228     1.08000
H544        H  0.71918952  0.21105564  0.03147488     0.39800
O545        O  0.73392487  0.23343701  0.03442712    -1.08500
O546        O  0.80878249  0.26297928  0.03523303    -0.65100
Ni547      Ni  0.77916762  0.22387755  0.00869540     1.26300
O548        O  0.68506395  0.23230985  0.97670523    -0.65400
O549        O  0.79556176  0.18583904  0.04267884    -0.77700
C550        C  0.81480280  0.19932148  0.94464942     0.85800
O551        O  0.82131108  0.21260422  0.97736391    -0.64800
Ni552      Ni  0.73557885  0.24475310  0.08641004     1.27400
Ni553      Ni  0.71516970  0.27084757  0.00147357     1.26100
H554        H  0.77504630  0.28336352  0.97855321     0.40300
C555        C  0.27121686  0.24804977  0.78238875     0.81500
N556        N  0.28722238  0.26458006  0.75355252    -0.76800
C557        C  0.27297346  0.29617264  0.74009602     0.83900
N558        N  0.24269505  0.31199126  0.75559400    -0.76800
C559        C  0.22622456  0.29543012  0.78452378     0.84000
N560        N  0.24077030  0.26354422  0.79851353    -0.78500
C561        C  0.50503040  0.30619025  0.95484904     0.81500
N562        N  0.49017431  0.32263184  0.98602772    -0.76800
C563        C  0.45832403  0.30918118  0.00016834     0.83900
N564        N  0.44131164  0.27959741  0.98306301    -0.76800
C565        C  0.45585712  0.26314133  0.95203818     0.84000
N566        N  0.48770381  0.27648188  0.93782665    -0.78500
C567        C  0.47760444  0.47398820  0.74085040     0.81500
N568        N  0.46555141  0.50908364  0.74851140    -0.76800
C569        C  0.48292938  0.53098684  0.77408450     0.83900
N570        N  0.51203115  0.51754112  0.79297563    -0.76800
C571        C  0.52444003  0.48238881  0.78520099     0.84000
N572        N  0.50686406  0.46014486  0.75947239    -0.78500
C573        C  0.23810658  0.46594182  0.95360964     0.81500
N574        N  0.25148687  0.45508414  0.98705135    -0.76800
C575        C  0.28433842  0.46862243  0.99968343     0.83900
N576        N  0.30379063  0.49236278  0.97893926    -0.76800
C577        C  0.29080527  0.50311888  0.94575932     0.84000
N578        N  0.25788344  0.49008952  0.93296742    -0.78500
O579        O  0.39064357  0.61608704  0.82071187    -0.73200
O580        O  0.33368991  0.67404661  0.89070310    -0.73200
O581        O  0.38698540  0.68845738  0.83867684    -0.73300
O582        O  0.33810995  0.60149170  0.87139125    -0.73300
O583        O  0.38032981  0.59584743  0.91607697    -0.73200
O584        O  0.43316051  0.68039074  0.87855993    -0.73200
O585        O  0.37943894  0.67010470  0.93186273    -0.73200
O586        O  0.43318497  0.60724382  0.86456536    -0.73300
Ni587      Ni  0.36073280  0.64552762  0.85397130     1.25400
Ni588      Ni  0.40797544  0.63833363  0.89962386     1.25400
C589        C  0.42156653  0.60307638  0.83123322     0.89000
C590        C  0.34682073  0.68023632  0.92333601     0.88900
C591        C  0.42007155  0.69495855  0.84919576     0.89000
C592        C  0.35086815  0.58477221  0.89945659     0.89100
O593        O  0.61302870  0.44147682  0.87878277    -0.73200
O594        O  0.68261569  0.37793949  0.92855271    -0.73200
O595        O  0.68661466  0.44020302  0.87953049    -0.73300
O596        O  0.60922051  0.38346505  0.92583889    -0.73300
O597        O  0.60970688  0.34195347  0.87815861    -0.73200
O598        O  0.68384729  0.40119244  0.83015723    -0.73200
O599        O  0.68370653  0.34010241  0.87814517    -0.73200
O600        O  0.61110433  0.39964313  0.83129157    -0.73300
Ni601      Ni  0.64849171  0.41216367  0.90505710     1.25400
Ni602      Ni  0.64760510  0.36920089  0.85288854     1.25400
C603        C  0.60067190  0.43037161  0.84691533     0.89000
C604        C  0.69169034  0.34656076  0.91245287     0.88900
C605        C  0.69319125  0.43318885  0.84484591     0.89000
C606        C  0.59637848  0.35396779  0.90929072     0.89100
O607        O  0.32393776  0.38411043  0.66135380    -0.73200
O608        O  0.37200340  0.43746215  0.58715068    -0.73200
O609        O  0.31717220  0.38446965  0.58775213    -0.73300
O610        O  0.37938151  0.43445737  0.66105126    -0.73300
O611        O  0.41883148  0.38639925  0.65711973    -0.73200
O612        O  0.36211779  0.34238093  0.57983583    -0.73200
O613        O  0.41686054  0.39464041  0.58427662    -0.73200
O614        O  0.36342660  0.33644919  0.65317902    -0.73300
Ni615      Ni  0.34663190  0.41199913  0.62438974     1.25400
Ni616      Ni  0.39176965  0.36331092  0.61815647     1.25400
C617        C  0.33477968  0.35113039  0.66817588     0.89000
C618        C  0.40347467  0.42649147  0.57579339     0.88900
C619        C  0.32923575  0.35318873  0.57395457     0.89000
C620        C  0.40920413  0.41812325  0.67085970     0.89100
O621        O  0.31977673  0.39479287  0.09750300    -0.73200
O622        O  0.36363570  0.33485624  0.17082938    -0.73200
O623        O  0.31160812  0.39248498  0.17083234    -0.73300
O624        O  0.37191723  0.34123571  0.09702833    -0.73300
O625        O  0.41422888  0.38610377  0.10457559    -0.73200
O626        O  0.35667906  0.43340312  0.18243953    -0.73200
O627        O  0.41001378  0.37521877  0.17762099    -0.73200
O628        O  0.36150957  0.43981041  0.10775952    -0.73300
Ni629      Ni  0.34025099  0.36425419  0.13422519     1.25400
Ni630      Ni  0.38718493  0.41023471  0.14397908     1.25400
C631        C  0.33312454  0.42672510  0.09044823     0.89000
C632        C  0.39581649  0.34272741  0.18288074     0.88900
C633        C  0.32296607  0.42370981  0.18567342     0.89000
C634        C  0.40257028  0.35620336  0.08807407     0.89100
O635        O  0.37333508  0.16084195  0.91241720    -0.73200
O636        O  0.32539480  0.08242076  0.85391747    -0.73200
O637        O  0.37647916  0.08568613  0.91080185    -0.73300
O638        O  0.32173793  0.15666374  0.85863289    -0.73300
O639        O  0.36459250  0.15746675  0.81433258    -0.73200
O640        O  0.42361810  0.08934929  0.87169844    -0.73200
O641        O  0.37138538  0.08204441  0.81319704    -0.73200
O642        O  0.41646001  0.16394900  0.86865200    -0.73300
Ni643      Ni  0.34786076  0.12092803  0.88547577     1.25400
Ni644      Ni  0.39576177  0.12286890  0.84035500     1.25400
C645        C  0.40252950  0.17567700  0.89941340     0.89000
C646        C  0.33869243  0.07241206  0.82202181     0.88900
C647        C  0.40982941  0.07855703  0.90247381     0.89000
C648        C  0.33355771  0.16823683  0.82789020     0.89100
O649        O  0.13103362  0.33644039  0.86666623    -0.73200
O650        O  0.05808041  0.38855915  0.92493135    -0.73200
O651        O  0.05824018  0.33324985  0.86560075    -0.73300
O652        O  0.13179488  0.38919526  0.92178201    -0.73300
O653        O  0.12968931  0.43396912  0.87983691    -0.73200
O654        O  0.05467732  0.37856266  0.82460625    -0.73200
O655        O  0.05551771  0.43420698  0.88417356    -0.73200
O656        O  0.12840838  0.38084675  0.82428048    -0.73300
Ni657      Ni  0.09412405  0.36038549  0.89626740     1.25400
Ni658      Ni  0.09132229  0.40858269  0.85178700     1.25400
C659        C  0.14191678  0.35024158  0.83633134     0.89000
C660        C  0.04909247  0.42223560  0.91695294     0.88900
C661        C  0.04919979  0.34419963  0.83299982     0.89000
C662        C  0.14392600  0.41993664  0.90894937     0.89100
C663        C  0.69600742  0.75291098  0.20664193     0.81500
N664        N  0.68715884  0.74371819  0.24139914    -0.76800
C665        C  0.70588572  0.71686520  0.25868994     0.83900
N666        N  0.73359193  0.69820264  0.24100616    -0.76800
C667        C  0.74311464  0.70744748  0.20594556     0.84000
N668        N  0.72404583  0.73484401  0.18845580    -0.78500
O669        O  0.61861615  0.58185407  0.33672036    -0.73200
O670        O  0.66393481  0.62955157  0.42158422    -0.73200
O671        O  0.61702383  0.57165326  0.40971934    -0.73300
O672        O  0.66731936  0.63780142  0.34862125    -0.73300
O673        O  0.62148228  0.67949407  0.35280046    -0.73200
O674        O  0.56993672  0.61161455  0.41536120    -0.73200
O675        O  0.61882670  0.67176057  0.42666473    -0.73200
O676        O  0.57229767  0.62279066  0.34221335    -0.73300
Ni677      Ni  0.64328790  0.60385147  0.37916393     1.25400
Ni678      Ni  0.59377599  0.64792960  0.38469026     1.25400
C679        C  0.58756282  0.59446960  0.32596198     0.89000
C680        C  0.65042959  0.65975305  0.43645624     0.88900
C681        C  0.58476139  0.57948271  0.42088731     0.89000
C682        C  0.65319627  0.66920664  0.34089937     0.89100
C683        C  0.71253264  0.46684220  0.01818440     0.81500
N684        N  0.69965481  0.49008459  0.99246810    -0.76800
C685        C  0.71697932  0.52255430  0.98632233     0.83900
N686        N  0.74709614  0.53244280  0.00644446    -0.76800
C687        C  0.76037016  0.50891166  0.03218382     0.84000
N688        N  0.74250561  0.47645337  0.03880491    -0.78500
C689        C  0.50638684  0.77130448  0.04228597     0.81500
N690        N  0.52734663  0.75516776  0.01548326    -0.76800
C691        C  0.52047632  0.71985314  0.00322276     0.83900
N692        N  0.49264050  0.70006781  0.01814193    -0.76800
C693        C  0.47145185  0.71637655  0.04514583     0.84000
N694        N  0.47872252  0.75184193  0.05774181    -0.78500
C695        C  0.52780102  0.54401745  0.24320505     0.81500
N696        N  0.49307637  0.55681864  0.23827613    -0.76800
C697        C  0.47148187  0.54065679  0.21154746     0.83900
N698        N  0.48461771  0.51256866  0.18937516    -0.76800
C699        C  0.51915595  0.49999822  0.19415159     0.84000
N700        N  0.54095003  0.51563801  0.22103896    -0.78500
O701        O  0.36977821  0.61699497  0.17561310    -0.73200
O702        O  0.30338226  0.66645207  0.11132762    -0.73200
O703        O  0.29810600  0.61146534  0.16547875    -0.73300
O704        O  0.37538313  0.66915540  0.12311080    -0.73300
O705        O  0.38388414  0.62371694  0.07979053    -0.73200
O706        O  0.30496743  0.56768992  0.12033329    -0.73200
O707        O  0.31183673  0.62228198  0.06688631    -0.73200
O708        O  0.37727144  0.57135002  0.13226565    -0.73300
Ni709      Ni  0.33582999  0.64260811  0.14537885     1.25400
Ni710      Ni  0.34437464  0.59454206  0.09822999     1.25400
C711        C  0.38437795  0.58623755  0.16433283     0.89000
C712        C  0.30126072  0.65528399  0.07718737     0.88900
C713        C  0.29200804  0.57833415  0.15195714     0.89000
C714        C  0.39218991  0.65567228  0.09450073     0.89100
O715        O  0.55436957  0.39737324  0.10661727    -0.73200
O716        O  0.61368706  0.31681780  0.06652952    -0.73200
O717        O  0.55693834  0.32275857  0.11750592    -0.73300
O718        O  0.61016850  0.38987365  0.05634411    -0.73300
O719        O  0.65137073  0.39849814  0.10207336    -0.73200
O720        O  0.59756304  0.33481627  0.16295851    -0.73200
O721        O  0.65252616  0.32630517  0.11407683    -0.73200
O722        O  0.59647697  0.40787412  0.15108484    -0.73300
Ni723      Ni  0.58198047  0.35621742  0.08509903     1.25400
Ni724      Ni  0.62571019  0.36713391  0.13419859     1.25400
C725        C  0.56621130  0.41577544  0.13535919     0.89000
C726        C  0.64449209  0.31087822  0.08263609     0.88900
C727        C  0.56828615  0.31895846  0.15092876     0.89000
C728        C  0.64059825  0.40304217  0.06881912     0.89100
O729        O  0.62140203  0.68269478  0.92036701    -0.73200
O730        O  0.67691461  0.62485773  0.84757551    -0.73200
O731        O  0.62855918  0.68435331  0.84596325    -0.73300
O732        O  0.67102324  0.62600142  0.92082620    -0.73300
O733        O  0.62673786  0.58302323  0.91299669    -0.73200
O734        O  0.57982136  0.64635561  0.84325558    -0.73200
O735        O  0.62789663  0.58788071  0.83965506    -0.73200
O736        O  0.57708001  0.63940241  0.91648543    -0.73300
Ni737      Ni  0.65112493  0.65618522  0.88375395     1.25400
Ni738      Ni  0.60118907  0.61274842  0.87778431     1.25400
C739        C  0.59011307  0.66980918  0.93027081     0.89000
C740        C  0.66150951  0.59530582  0.83344428     0.88900
C741        C  0.59636251  0.67641182  0.83410008     0.89000
C742        C  0.65723691  0.59413870  0.92731009     0.89100
O743        O  0.84604842  0.59173363  0.08235995    -0.73200
O744        O  0.91469705  0.65548843  0.13413547    -0.73200
O745        O  0.91887099  0.59131222  0.08698097    -0.73300
O746        O  0.84135006  0.65363560  0.12793118    -0.73300
O747        O  0.83763342  0.61646521  0.17655541    -0.73200
O748        O  0.91721196  0.55498678  0.13615268    -0.73200
O749        O  0.91074650  0.62055910  0.18424546    -0.73200
O750        O  0.84392008  0.55419798  0.13089784    -0.73300
Ni751      Ni  0.88076189  0.62437998  0.10629058     1.25400
Ni752      Ni  0.87776220  0.58529873  0.15888311     1.25400
C753        C  0.83434569  0.56230165  0.09782924     0.89000
C754        C  0.92099061  0.65085421  0.16879904     0.88900
C755        C  0.92692924  0.56021660  0.10227926     0.89000
C756        C  0.82653505  0.64500486  0.15874876     0.89100
O757        O  0.64916621  0.84396137  0.13026820    -0.73200
O758        O  0.61443417  0.92840849  0.08112689    -0.73200
O759        O  0.66493459  0.91653525  0.13578587    -0.73300
O760        O  0.59673650  0.85613743  0.07920702    -0.73300
O761        O  0.55648030  0.86285671  0.12577029    -0.73200
O762        O  0.62132202  0.92939020  0.17774985    -0.73200
O763        O  0.56827411  0.93557578  0.12136534    -0.73200
O764        O  0.61024894  0.85462921  0.17734124    -0.73300
Ni765      Ni  0.63285710  0.88617833  0.10508899     1.25400
Ni766      Ni  0.58758904  0.89633483  0.15240880     1.25400
C767        C  0.63657297  0.83582925  0.16183125     0.89000
C768        C  0.58344931  0.94244018  0.08997508     0.88900
C769        C  0.65470274  0.93105555  0.16722492     0.89000
C770        C  0.56526234  0.84997788  0.09367705     0.89100
O771        O  0.67483723  0.46389711  0.72185684    -0.79600
O772        O  0.78451886  0.53677940  0.83280211    -0.64300
O773        O  0.71929993  0.52093940  0.74920804    -1.10900
C774        C  0.81936121  0.44874409  0.70217136     1.07300
O775        O  0.82584932  0.55202276  0.79152186    -0.77500
O776        O  0.82395357  0.54457740  0.71929189    -0.65100
Ni777      Ni  0.67020859  0.50532388  0.75583389     1.34900
C778        C  0.79944031  0.55016433  0.69512056     0.86000
O779        O  0.71616524  0.56268254  0.81647173    -0.78100
O780        O  0.66212793  0.54646238  0.78975797    -0.88300
C781        C  0.81554039  0.55093066  0.82494185     0.85600
O782        O  0.67727437  0.47055725  0.79478986    -0.66500
O783        O  0.83915500  0.46916048  0.72387396    -0.85800
C784        C  0.70187659  0.46468938  0.81897287     0.86400
C785        C  0.68171106  0.56723402  0.81133350     1.08000
H786        H  0.78255114  0.47092171  0.77706829     0.39800
O787        O  0.78155814  0.49462786  0.76481624    -1.08500
O788        O  0.77014918  0.53031614  0.69280812    -0.65100
Ni789      Ni  0.75114758  0.48792398  0.72149202     1.26300
O790        O  0.73089047  0.48508037  0.82152555    -0.65400
O791        O  0.78481103  0.45329511  0.69742382    -0.77700
C792        C  0.68511434  0.46574701  0.68843030     0.85800
O793        O  0.71637058  0.47959667  0.68098955    -0.64800
Ni794      Ni  0.83075601  0.51018924  0.75811805     1.27400
Ni795      Ni  0.74968262  0.52778774  0.79254359     1.26100
H796        H  0.71825681  0.54465645  0.73691814     0.40300
O797        O  0.95796521  0.02398159  0.58956684    -0.79600
O798        O  0.04461167  0.91256980  0.49009813    -0.64300
O799        O  0.01870524  0.99965600  0.55076536    -1.10900
C800        C  0.95334155  0.03205909  0.43984116     1.07300
O801        O  0.05993772  0.95386400  0.44912337    -0.77500
O802        O  0.04647822  0.02554209  0.44420965    -0.65100
Ni803      Ni  0.00059905  0.99516197  0.59985487     1.34900
C804        C  0.04929315  0.05163819  0.46872696     0.86000
O805        O  0.06294231  0.93606612  0.56183688    -0.78100
O806        O  0.04247266  0.96631004  0.61385752    -0.88300
C807        C  0.05831627  0.92014099  0.45863413     0.85600
O808        O  0.97114240  0.95131162  0.59221013    -0.66500
O809        O  0.97544912  0.01000657  0.42256991    -0.85800
C810        C  0.96825606  0.92529613  0.56750768     0.86400
C811        C  0.06474088  0.94420673  0.59692471     1.08000
H812        H  0.97723919  0.96236848  0.48412624     0.39800
O813        O  0.99939944  0.97711919  0.48629747    -1.08500
O814        O  0.02843795  0.05360434  0.49736240    -0.65100
Ni815      Ni  0.98733503  0.02194263  0.51411582     1.26300
O816        O  0.98955212  0.92311782  0.53925871    -0.65400
O817        O  0.95543100  0.04015984  0.47497183    -0.77700
C818        C  0.95884350  0.05731700  0.57852767     0.85800
O819        O  0.97335008  0.06406382  0.54709713    -0.64800
Ni820      Ni  0.01744786  0.98156852  0.43722877     1.27400
Ni821      Ni  0.03085325  0.95466241  0.52293760     1.26100
H822        H  0.04088743  0.01447546  0.55290840     0.40300
C823        C  0.54547947  0.99895490  0.70469873     0.81500
N824        N  0.55977094  0.01660340  0.73551220    -0.76800
C825        C  0.54286368  0.04749495  0.75060824     0.83900
N826        N  0.51181267  0.06084210  0.73464028    -0.76800
C827        C  0.49747730  0.04328411  0.70384706     0.84000
N828        N  0.51441984  0.01243092  0.68887722    -0.78500
C829        C  0.75975651  0.04584229  0.53711841     0.81500
N830        N  0.74548160  0.01396628  0.55131562    -0.76800
C831        C  0.71634558  0.99660429  0.53431680     0.83900
N832        N  0.70137735  0.01128618  0.50353431    -0.76800
C833        C  0.71531746  0.04292966  0.48933500     0.84000
N834        N  0.74441984  0.06039268  0.50614942    -0.78500
C835        C  0.49408581  0.20959702  0.53088811     0.81500
N836        N  0.50695235  0.24059416  0.54962185    -0.76800
C837        C  0.53664742  0.25906351  0.53659104     0.83900
N838        N  0.55361430  0.24641327  0.50518690    -0.76800
C839        C  0.54091198  0.21552466  0.48652557     0.84000
N840        N  0.51127425  0.19693113  0.49948063    -0.78500
O841        O  0.62928700  0.07550182  0.39220492    -0.73200
O842        O  0.57468475  0.12905943  0.31781741    -0.73200
O843        O  0.62623324  0.06748754  0.31764318    -0.73300
O844        O  0.57988168  0.13219425  0.39151969    -0.73300
O845        O  0.62441160  0.17461975  0.38585118    -0.73200
O846        O  0.67350903  0.10684853  0.31615362    -0.73200
O847        O  0.62270813  0.16685594  0.31156090    -0.73200
O848        O  0.67383851  0.11831871  0.38958636    -0.73300
Ni849      Ni  0.60081869  0.09947743  0.35430619     1.25400
Ni850      Ni  0.65014823  0.14308713  0.35002972     1.25400
C851        C  0.66010090  0.08907334  0.40357468     0.89000
C852        C  0.58861118  0.15962942  0.30592854     0.88900
C853        C  0.66004289  0.07387771  0.30975553     0.89000
C854        C  0.59451377  0.16365638  0.40077368     0.89100
O855        O  0.39341887  0.12596460  0.56718297    -0.73200
O856        O  0.32215513  0.07707877  0.62923337    -0.73200
O857        O  0.31917446  0.12979483  0.57030940    -0.73300
O858        O  0.39553206  0.07606278  0.62257845    -0.73300
O859        O  0.39800314  0.12249858  0.66553297    -0.73200
O860        O  0.32546627  0.17761058  0.61103105    -0.73200
O861        O  0.32434059  0.12620734  0.66888327    -0.73200
O862        O  0.39878049  0.17198912  0.61032269    -0.73300
Ni863      Ni  0.35682076  0.10050177  0.59579206     1.25400
Ni864      Ni  0.36126187  0.15114924  0.64042043     1.25400
C865        C  0.40855140  0.15637487  0.57947287     0.89000
C866        C  0.31433633  0.09235045  0.66112073     0.88900
C867        C  0.31356262  0.16456383  0.57953787     0.89000
C868        C  0.40943974  0.09086080  0.65231777     0.89100
C869        C  0.76604767  0.22904784  0.72184358     0.81500
N870        N  0.74781455  0.21454949  0.75085626    -0.76800
C871        C  0.71644126  0.23102696  0.76319712     0.83900
N872        N  0.70289087  0.26133414  0.74618314    -0.76800
C873        C  0.72106144  0.27574295  0.71721264     0.84000
N874        N  0.75244741  0.25940587  0.70463000    -0.78500
O875        O  0.67369548  0.36077025  0.62774490    -0.73200
O876        O  0.61641021  0.43209416  0.57709097    -0.73200
O877        O  0.67297145  0.43544739  0.62872382    -0.73300
O878        O  0.61804251  0.35718621  0.57739763    -0.73300
O879        O  0.57720013  0.35704759  0.62361079    -0.73200
O880        O  0.62945846  0.43681830  0.67228320    -0.73200
O881        O  0.57318986  0.43185492  0.62097318    -0.73200
O882        O  0.63277139  0.36235348  0.67396438    -0.73300
Ni883      Ni  0.64667154  0.39663852  0.60097567     1.25400
Ni884      Ni  0.60168990  0.39730398  0.64937095     1.25400
C885        C  0.66301377  0.35072398  0.65964475     0.89000
C886        C  0.58427732  0.44098086  0.58876575     0.88900
C887        C  0.66131368  0.44633448  0.66085997     0.89000
C888        C  0.58879755  0.34441668  0.59220475     0.89100
O889        O  0.67758809  0.89609176  0.61065464    -0.73200
O890        O  0.62601909  0.82131731  0.66358026    -0.73200
O891        O  0.67816865  0.82099188  0.60701010    -0.73300
O892        O  0.62675871  0.89667431  0.66498149    -0.73300
O893        O  0.58236455  0.89673586  0.62209237    -0.73200
O894        O  0.63303917  0.81893926  0.56506432    -0.73200
O895        O  0.58008776  0.82082222  0.62255897    -0.73200
O896        O  0.63361343  0.89511452  0.56729717    -0.73300
Ni897      Ni  0.65359771  0.85826561  0.63801663     1.25400
Ni898      Ni  0.60561625  0.85744492  0.59267545     1.25400
C899        C  0.66392976  0.90823573  0.58060963     0.89000
C900        C  0.59331143  0.81153932  0.65417267     0.88900
C901        C  0.66594413  0.81056540  0.57478350     0.89000
C902        C  0.59656306  0.90974758  0.65245963     0.89100
O903        O  0.86016217  0.12743867  0.58553246    -0.73200
O904        O  0.93343697  0.17259801  0.65139069    -0.73200
O905        O  0.93378810  0.11930941  0.59123880    -0.73300
O906        O  0.86115222  0.17954660  0.64255739    -0.73300
O907        O  0.85264722  0.13441848  0.68340279    -0.73200
O908        O  0.92485321  0.07465348  0.63227681    -0.73200
O909        O  0.92512933  0.12706421  0.69154228    -0.73200
O910        O  0.85175465  0.08257409  0.62653507    -0.73300
Ni911      Ni  0.89788535  0.15125526  0.61615822     1.25400
Ni912      Ni  0.88868719  0.10295607  0.65973245     1.25400
C913        C  0.84355705  0.09773182  0.59578907     0.89000
C914        C  0.93736574  0.15972218  0.68427138     0.88900
C915        C  0.93891313  0.08569286  0.60178967     0.89000
C916        C  0.84555527  0.16704762  0.67144251     0.89100
O917        O  0.62610711  0.19110470  0.85198501    -0.73200
O918        O  0.57390392  0.13764717  0.92655953    -0.73200
O919        O  0.62707323  0.19504657  0.92632674    -0.73300
O920        O  0.57522032  0.13554475  0.85144052    -0.73300
O921        O  0.61998566  0.09273331  0.85190117    -0.73200
O922        O  0.67178945  0.15226096  0.92548086    -0.73200
O923        O  0.61933513  0.09566054  0.92650977    -0.73200
O924        O  0.67059193  0.14784897  0.85189022    -0.73300
Ni925      Ni  0.59884456  0.16634387  0.88948433     1.25400
Ni926      Ni  0.64686126  0.12054631  0.88942637     1.25400
C927        C  0.65687287  0.17823658  0.84015458     0.89000
C928        C  0.58693631  0.10599587  0.93630338     0.88900
C929        C  0.66009778  0.18528832  0.93422838     0.89000
C930        C  0.58961950  0.10485210  0.83892137     0.89100
C931        C  0.04700596  0.74560053  0.55963009     0.81500
N932        N  0.06056394  0.73349045  0.52631740    -0.76800
C933        C  0.04348261  0.70554632  0.50659788     0.83900
N934        N  0.01274319  0.68938131  0.52054751    -0.76800
C935        C  0.99906895  0.70157580  0.55403585     0.84000
N936        N  0.01634471  0.72964328  0.57347377    -0.78500
O937        O  0.12955345  0.57496939  0.40071062    -0.73200
O938        O  0.07089615  0.62722371  0.32824673    -0.73200
O939        O  0.12346721  0.56824664  0.32591898    -0.73300
O940        O  0.07722907  0.62879117  0.40240331    -0.73300
O941        O  0.11928373  0.67369890  0.39666002    -0.73200
O942        O  0.16914646  0.60952651  0.32374529    -0.73200
O943        O  0.11623819  0.66817277  0.32130511    -0.73200
O944        O  0.17175604  0.62006760  0.39745746    -0.73300
Ni945      Ni  0.09869131  0.59821897  0.36383644     1.25400
Ni946      Ni  0.14559068  0.64442012  0.35894724     1.25400
C947        C  0.15989266  0.59010247  0.41172519     0.89000
C948        C  0.08246353  0.65908333  0.31684136     0.88900
C949        C  0.15652042  0.57615374  0.31714861     0.89000
C950        C  0.09073371  0.66046697  0.41260258     0.89100
C951        C  0.26978264  0.69928743  0.72586738     0.81500
N952        N  0.25352340  0.67864400  0.75252319    -0.76800
C953        C  0.22223321  0.69155057  0.76923351     0.83900
N954        N  0.20735713  0.72449092  0.75905054    -0.76800
C955        C  0.22365358  0.74479350  0.73261746     0.84000
N956        N  0.25462223  0.73213411  0.71585495    -0.78500
C957        C  0.21361379  0.54663709  0.50057705     0.81500
N958        N  0.19381207  0.52047686  0.51813389    -0.76800
C959        C  0.20652028  0.50537692  0.54969354     0.83900
N960        N  0.23945470  0.51654070  0.56410790    -0.76800
C961        C  0.25975716  0.54284981  0.54680630     0.84000
N962        N  0.24665643  0.55808604  0.51494728    -0.78500
O963        O  0.36351039  0.61796785  0.58215612    -0.73200
O964        O  0.44073231  0.67703375  0.62953114    -0.73200
O965        O  0.43648556  0.61614955  0.57465931    -0.73300
O966        O  0.36680287  0.67286450  0.63551274    -0.73300
O967        O  0.37080132  0.62859356  0.67790768    -0.73200
O968        O  0.44395436  0.57598529  0.62014358    -0.73200
O969        O  0.44369615  0.63648845  0.67510470    -0.73200
O970        O  0.36961883  0.57383837  0.62434060    -0.73300
Ni971      Ni  0.40246581  0.64757995  0.60386490     1.25400
Ni972      Ni  0.40792565  0.60222422  0.65082581     1.25400
C973        C  0.35333831  0.58691545  0.59563866     0.89000
C974        C  0.45036768  0.66959702  0.66294557     0.88900
C975        C  0.44701156  0.58370338  0.58572849     0.89000
C976        C  0.35646556  0.65861075  0.66612769     0.89100
C977        C  0.01584320  0.52043671  0.78664998     0.81500
N978        N  0.98876149  0.54083423  0.77084891    -0.76800
C979        C  0.97133890  0.52666485  0.74007748     0.83900
N980        N  0.98256800  0.49381717  0.72413905    -0.76800
C981        C  0.00973653  0.47410873  0.74008299     0.84000
N982        N  0.02636008  0.48752350  0.77102473    -0.78500
O983        O  0.06657174  0.40810960  0.64231758    -0.73200
O984        O  0.11894921  0.33513056  0.58623785    -0.73200
O985        O  0.06859011  0.33459023  0.64337850    -0.73300
O986        O  0.11746005  0.41078520  0.58760335    -0.73300
O987        O  0.16046824  0.41510487  0.63191372    -0.73200
O988        O  0.11705751  0.33363981  0.68142741    -0.73200
O989        O  0.16694925  0.34051306  0.62481320    -0.73200
O990        O  0.10981360  0.40720211  0.68661782    -0.73300
Ni991      Ni  0.09142014  0.37192666  0.61309661     1.25400
Ni992      Ni  0.14036291  0.37412397  0.65761861     1.25400
C993        C  0.07798342  0.41653808  0.67488173     0.89000
C994        C  0.15210232  0.32747957  0.59478199     0.88900
C995        C  0.08409987  0.32396502  0.67341086     0.89000
C996        C  0.14681009  0.42571918  0.60129646     0.89100
O997        O  0.89988987  0.61956495  0.58901179    -0.73200
O998        O  0.82080099  0.56700470  0.63540269    -0.73200
O999        O  0.82678112  0.62015313  0.58060335    -0.73300
O1000       O  0.89390040  0.56903830  0.64366998    -0.73300
O1001       O  0.88941261  0.61628039  0.68569886    -0.73200
O1002       O  0.82192011  0.66681821  0.62303389    -0.73200
O1003       O  0.81674872  0.61270558  0.67880125    -0.73200
O1004       O  0.89513966  0.66667048  0.63102943    -0.73300
Ni1005     Ni  0.86017110  0.59238855  0.61055505     1.25400
Ni1006     Ni  0.85515596  0.64237855  0.65605594     1.25400
C1007       C  0.91061707  0.65138724  0.60233643     0.89000
C1008       C  0.80965135  0.57880177  0.66740855     0.88900
C1009       C  0.81589586  0.65328641  0.59023414     0.89000
C1010       C  0.90224351  0.58442236  0.67520021     0.89100
O1011       O  0.08595733  0.84025222  0.64992683    -0.73200
O1012       O  0.13607714  0.91673264  0.70819029    -0.73200
O1013       O  0.08202932  0.91537799  0.65291282    -0.73300
O1014       O  0.13859827  0.84187407  0.70303061    -0.73300
O1015       O  0.18179444  0.84514169  0.65923166    -0.73200
O1016       O  0.12396780  0.91706183  0.60793903    -0.73200
O1017       O  0.17863152  0.91969477  0.66394971    -0.73200
O1018       O  0.12921967  0.84247105  0.60616495    -0.73300
Ni1019     Ni  0.10904814  0.87887567  0.68002990     1.25400
Ni1020     Ni  0.15492422  0.88173617  0.63275380     1.25400
C1021       C  0.09959727  0.82861712  0.61891336     0.89000
C1022       C  0.16790826  0.92706554  0.69741424     0.88900
C1023       C  0.09193590  0.92522361  0.62043290     0.89000
C1024       C  0.16938286  0.83157545  0.68914397     0.89100
O1025       O  0.13460996  0.65438756  0.86090843    -0.73200
O1026       O  0.07746618  0.60507083  0.93585740    -0.73200
O1027       O  0.13313308  0.65867731  0.93530060    -0.73300
O1028       O  0.07942721  0.60407495  0.86259082    -0.73300
O1029       O  0.11918431  0.55642265  0.86591235    -0.73200
O1030       O  0.17791961  0.61593568  0.93487561    -0.73200
O1031       O  0.12225100  0.56272160  0.93985820    -0.73200
O1032       O  0.17482378  0.60705052  0.86077064    -0.73300
Ni1033     Ni  0.10482041  0.63232210  0.89893927     1.25400
Ni1034     Ni  0.15012368  0.58383636  0.90066776     1.25400
C1035       C  0.16379742  0.63825845  0.84833146     0.89000
C1036       C  0.08958865  0.57373558  0.94775714     0.88900
C1037       C  0.16564921  0.64868928  0.94406477     0.89000
C1038       C  0.08929636  0.57085379  0.85386785     0.89100
C1039       C  0.73226168  0.26989647  0.30626331     0.81500
N1040       N  0.74666108  0.28367862  0.27455161    -0.76800
C1041       C  0.77896707  0.26985276  0.26102548     0.83900
N1042       N  0.79687737  0.24279247  0.27928708    -0.76800
C1043       C  0.78278647  0.22909618  0.31079636     0.84000
N1044       N  0.75049400  0.24264425  0.32451115    -0.78500
O1045       O  0.63119946  0.41248150  0.38051829    -0.73200
O1046       O  0.56047578  0.35543213  0.32240052    -0.73200
O1047       O  0.55817764  0.41914072  0.37324276    -0.73300
O1048       O  0.63304303  0.35332727  0.33203577    -0.73300
O1049       O  0.62475339  0.31358857  0.37801765    -0.73200
O1050       O  0.55152546  0.38112177  0.42059740    -0.73200
O1051       O  0.55147649  0.31735170  0.36935771    -0.73200
O1052       O  0.62426868  0.37281310  0.42681642    -0.73300
Ni1053     Ni  0.59526261  0.38649819  0.35032691     1.25400
Ni1054     Ni  0.58699434  0.34488366  0.40029728     1.25400
C1055       C  0.64010875  0.40103109  0.41270392     0.89000
C1056       C  0.54906473  0.32387018  0.33449019     0.88900
C1057       C  0.54752255  0.41381719  0.40671772     0.89000
C1058       C  0.64166304  0.32331483  0.34861449     0.89100
C1059       C  0.72837768  0.45005440  0.46398343     0.81500
N1060       N  0.74810665  0.43124038  0.48961263    -0.76800
C1061       C  0.77985984  0.44617599  0.50332170     0.83900
N1062       N  0.79184849  0.47960046  0.49137400    -0.76800
C1063       C  0.77225752  0.49833995  0.46587873     0.84000
N1064       N  0.74060465  0.48353079  0.45194497    -0.78500
C1065       C  0.95100930  0.44638811  0.26346513     0.81500
N1066       N  0.98146609  0.43363805  0.28121100    -0.76800
C1067       C  0.99545017  0.45332802  0.31108909     0.83900
N1068       N  0.97862421  0.48548330  0.32322157    -0.76800
C1069       C  0.94825553  0.49810123  0.30541621     0.84000
N1070       N  0.93450664  0.47846550  0.27575311    -0.78500
C1071       C  0.98042073  0.21999640  0.48240920     0.81500
N1072       N  0.00933176  0.24011255  0.47041481    -0.76800
C1073       C  0.01941045  0.27192023  0.48930093     0.83900
N1074       N  0.99988014  0.28416045  0.51924832    -0.76800
C1075       C  0.97098394  0.26389149  0.53103845     0.84000
N1076       N  0.96093537  0.23216849  0.51231674    -0.78500
O1077       O  0.10226325  0.32789696  0.40658452    -0.73200
O1078       O  0.17149207  0.38685532  0.35393757    -0.73200
O1079       O  0.17500937  0.33189136  0.40876230    -0.73300
O1080       O  0.09821837  0.38059915  0.35407261    -0.73300
O1081       O  0.09494775  0.42548218  0.39854075    -0.73200
O1082       O  0.17233664  0.37643387  0.45344027    -0.73200
O1083       O  0.16908772  0.43127794  0.39885371    -0.73200
O1084       O  0.09908146  0.37252202  0.45144944    -0.73300
Ni1085     Ni  0.13732345  0.35539178  0.37921553     1.25400
Ni1086     Ni  0.13411597  0.40322093  0.42706445     1.25400
C1087       C  0.08997431  0.34030396  0.43781519     0.89000
C1088       C  0.17925781  0.42004300  0.36623770     0.88900
C1089       C  0.18249241  0.34346387  0.44214216     0.89000
C1090       C  0.08353817  0.41060489  0.36766784     0.89100
O1091       O  0.91967077  0.35669516  0.60482861    -0.73200
O1092       O  0.87108039  0.42636980  0.66964198    -0.73200
O1093       O  0.92153398  0.36961603  0.67816220    -0.73300
O1094       O  0.86965233  0.41208476  0.59566470    -0.73300
O1095       O  0.82476076  0.37000862  0.60128561    -0.73200
O1096       O  0.87396043  0.33117587  0.68538312    -0.73200
O1097       O  0.82342195  0.38744088  0.67409828    -0.73200
O1098       O  0.87467516  0.31507512  0.61258090    -0.73300
Ni1099     Ni  0.89701707  0.39284472  0.63695822     1.25400
Ni1100     Ni  0.84751846  0.34953488  0.64381235     1.25400
C1101       C  0.90578267  0.32420111  0.59915610     0.89000
C1102       C  0.83863451  0.41930106  0.68093606     0.88900
C1103       C  0.90698110  0.34115811  0.69327604     0.89000
C1104       C  0.83896325  0.39772184  0.58496438     0.89100
O1105       O  0.81840242  0.34793934  0.16441805    -0.73200
O1106       O  0.86684748  0.40342305  0.09023823    -0.73200
O1107       O  0.81618871  0.34492098  0.09021981    -0.73300
O1108       O  0.86915809  0.40311739  0.16515184    -0.73300
O1109       O  0.91310441  0.35941503  0.16433547    -0.73200
O1110       O  0.86264990  0.30436766  0.08569015    -0.73200
O1111       O  0.91435132  0.36400165  0.09000667    -0.73200
O1112       O  0.86207564  0.30397749  0.16104917    -0.73300
Ni1113     Ni  0.84116097  0.37637635  0.12714450     1.25400
Ni1114     Ni  0.88971333  0.33136696  0.12473295     1.25400
C1115       C  0.83198203  0.31704664  0.17486394     0.89000
C1116       C  0.89976387  0.39528901  0.08064163     0.88900
C1117       C  0.82925426  0.31316335  0.07847112     0.89000
C1118       C  0.89951021  0.39003209  0.17757077     0.89100
O1119       O  0.86348521  0.60066942  0.33908167    -0.73200
O1120       O  0.81252737  0.67571936  0.39908569    -0.73200
O1121       O  0.86571207  0.67600470  0.34229536    -0.73300
O1122       O  0.81076525  0.60094008  0.39203822    -0.73300
O1123       O  0.85300903  0.59915525  0.43711095    -0.73200
O1124       O  0.90935791  0.67158285  0.38556491    -0.73200
O1125       O  0.85724424  0.67441808  0.44149146    -0.73200
O1126       O  0.90546245  0.59694359  0.38420477    -0.73300
Ni1127     Ni  0.83652486  0.63894997  0.36654425     1.25400
Ni1128     Ni  0.88281965  0.63584307  0.41361491     1.25400
C1129       C  0.89270885  0.58617690  0.35257278     0.89000
C1130       C  0.82485363  0.68404292  0.43193334     0.88900
C1131       C  0.89841286  0.68265765  0.35371671     0.89000
C1132       C  0.82281816  0.58777472  0.42235145     0.89100
O1133       O  0.87394822  0.13744438  0.34042947    -0.73200
O1134       O  0.93287329  0.06047701  0.38410428    -0.73200
O1135       O  0.87422524  0.06229861  0.33435099    -0.73300
O1136       O  0.93254380  0.13502501  0.38727221    -0.73300
O1137       O  0.89420713  0.13393875  0.43567799    -0.73200
O1138       O  0.83588071  0.06117918  0.38260005    -0.73200
O1139       O  0.89463734  0.05999959  0.43244608    -0.73200
O1140       O  0.83593600  0.13571100  0.38898831    -0.73300
Ni1141     Ni  0.90476372  0.09857806  0.35971239     1.25400
Ni1142     Ni  0.86371014  0.09727306  0.41153675     1.25400
C1143       C  0.84521137  0.14899265  0.35788422     0.89000
C1144       C  0.92524282  0.05090249  0.41739529     0.88900
C1145       C  0.84370987  0.05263468  0.34856600     0.89000
C1146       C  0.92351828  0.14540725  0.42023688     0.89100
O1147       O  0.91516564  0.28288828  0.71870198    -0.79600
O1148       O  0.02951271  0.17416397  0.78495829    -0.64300
O1149       O  0.96420358  0.25799062  0.77242637    -1.10900
C1150       C  0.06399660  0.30261232  0.70121448     1.07300
O1151       O  0.07259167  0.21476479  0.80199042    -0.77500
O1152       O  0.06583586  0.28926160  0.79904712    -0.65100
Ni1153     Ni  0.91402557  0.25012964  0.75941493     1.34900
C1154       C  0.04162772  0.31484041  0.80262901     0.86000
O1155       O  0.96191843  0.19047215  0.81191239    -0.78100
O1156       O  0.90741667  0.21706363  0.79959402    -0.88300
C1157       C  0.06031252  0.18142054  0.80032177     0.85600
O1158       O  0.92059378  0.20960926  0.72401377    -0.66500
O1159       O  0.08363767  0.28399922  0.72355430    -0.85800
C1160       C  0.94603714  0.18644145  0.71599270     0.86400
C1161       C  0.92763732  0.19518199  0.81794699     1.08000
H1162       H  0.02852476  0.22754640  0.72268623     0.39800
O1163       O  0.02676275  0.24125254  0.74616395    -1.08500
O1164       O  0.01419863  0.31668308  0.78025550    -0.65100
Ni1165     Ni  0.99560392  0.28378098  0.73873146     1.26300
O1166       O  0.97596882  0.18512256  0.73470568    -0.65400
O1167       O  0.02902671  0.30562905  0.70373629    -0.77700
C1168       C  0.92855601  0.31546724  0.71625335     0.85800
O1169       O  0.96041254  0.32332260  0.72907539    -0.64800
Ni1170     Ni  0.07561837  0.24974938  0.76278164     1.27400
Ni1171     Ni  0.99491966  0.21456928  0.77808909     1.26100
H1172       H  0.96420123  0.27173098  0.79605400     0.40300
C1173       C  0.01772642  0.25821118  0.03464572     0.81500
N1174       N  0.03220782  0.23831340  0.00555297    -0.76800
C1175       C  0.01249567  0.21000814  0.98930094     0.83900
N1176       N  0.97935893  0.20067431  0.00322413    -0.76800
C1177       C  0.96525233  0.22091636  0.03227960     0.84000
N1178       N  0.98461884  0.24921865  0.04814265    -0.78500
O1179       O  0.06123893  0.33550997  0.13571066    -0.73200
O1180       O  0.11274283  0.40896028  0.19679057    -0.73200
O1181       O  0.06058305  0.41070422  0.14026075    -0.73300
O1182       O  0.11196164  0.33273312  0.19157821    -0.73300
O1183       O  0.15657676  0.33325535  0.14913414    -0.73200
O1184       O  0.10581876  0.40995994  0.09852437    -0.73200
O1185       O  0.15632418  0.40807977  0.15327228    -0.73200
O1186       O  0.10681303  0.33593338  0.09417020    -0.73300
Ni1187     Ni  0.08495167  0.37206798  0.16786250     1.25400
Ni1188     Ni  0.13295564  0.37204249  0.12252427     1.25400
C1189       C  0.07546988  0.32488262  0.10456750     0.89000
C1190       C  0.14418753  0.41931698  0.18493614     0.88900
C1191       C  0.07391544  0.42085923  0.10919212     0.89000
C1192       C  0.14246606  0.32016129  0.17848755     0.89100
C1193       C  0.02047138  0.02988092  0.28268300     0.81500
N1194       N  0.99609466  0.04737252  0.26040022    -0.76800
C1195       C  0.98707612  0.03141823  0.22681189     0.83900
N1196       N  0.00300355  0.99866583  0.21542458    -0.76800
C1197       C  0.02735571  0.98158999  0.23793023     0.84000
N1198       N  0.03630761  0.99737311  0.27120511    -0.78500
C1199       C  0.20501244  0.18878027  0.27034265     0.81500
N1200       N  0.18676105  0.21822917  0.25608026    -0.76800
C1201       C  0.19921727  0.23485560  0.22523681     0.83900
N1202       N  0.23020519  0.22197164  0.20826288    -0.76800
C1203       C  0.24901164  0.19252386  0.22210276     0.84000
N1204       N  0.23627536  0.17568792  0.25327165    -0.78500
O1205       O  0.12466230  0.16052072  0.37356708    -0.73200
O1206       O  0.06871365  0.11364417  0.45167918    -0.73200
O1207       O  0.12742720  0.16409060  0.44832426    -0.73300
O1208       O  0.06684753  0.11300311  0.37784068    -0.73300
O1209       O  0.10554308  0.06429566  0.37748476    -0.73200
O1210       O  0.16934892  0.11849275  0.44645063    -0.73200
O1211       O  0.11008493  0.06762492  0.45169557    -0.73200
O1212       O  0.16335860  0.11195367  0.37214498    -0.73300
Ni1213     Ni  0.09570205  0.13965316  0.41337459     1.25400
Ni1214     Ni  0.13853650  0.08886727  0.41240130     1.25400
C1215       C  0.15278228  0.14334742  0.35963288     0.89000
C1216       C  0.07800101  0.08013923  0.46018020     0.88900
C1217       C  0.15979509  0.15223556  0.45548039     0.89000
C1218       C  0.07596996  0.08019591  0.36648572     0.89100
C1219       C  0.20173965  0.99227692  0.05845045     0.81500
N1220       N  0.18289019  0.00383493  0.02834855    -0.76800
C1221       C  0.19666258  0.03136440  0.00736281     0.83900
N1222       N  0.22932537  0.04756665  0.01662963    -0.76800
C1223       C  0.24833083  0.03585003  0.04671444     0.84000
N1224       N  0.23441595  0.00827893  0.06770328    -0.78500
O1225       O  0.34521003  0.12442824  0.07091620    -0.73200
O1226       O  0.41632227  0.18964507  0.11951586    -0.73200
O1227       O  0.41754469  0.13479207  0.05865911    -0.73300
O1228       O  0.34412132  0.17496660  0.12856911    -0.73300
O1229       O  0.35720038  0.12922745  0.16738231    -0.73200
O1230       O  0.43138135  0.09076495  0.09878531    -0.73200
O1231       O  0.42865934  0.14520507  0.15977668    -0.73200
O1232       O  0.35908534  0.07888623  0.10979283    -0.73300
Ni1233     Ni  0.38101641  0.15767140  0.09292712     1.25400
Ni1234     Ni  0.39530030  0.10956110  0.13514549     1.25400
C1235       C  0.33965466  0.09167360  0.08326536     0.89000
C1236       C  0.42958738  0.17995547  0.15097341     0.88900
C1237       C  0.43300527  0.10308370  0.06549497     0.89000
C1238       C  0.33786266  0.15772001  0.15879990     0.89100
O1239       O  0.11399998  0.06288369  0.90388298    -0.73200
O1240       O  0.06863341  0.12022333  0.82655056    -0.73200
O1241       O  0.12397627  0.06589469  0.82960956    -0.73300
O1242       O  0.05990180  0.11553365  0.90027967    -0.73300
O1243       O  0.10197956  0.16039898  0.90992409    -0.73200
O1244       O  0.16471499  0.11185521  0.83946064    -0.73200
O1245       O  0.11080986  0.16466419  0.83694094    -0.73200
O1246       O  0.15548296  0.10837899  0.91289590    -0.73300
Ni1247     Ni  0.09013105  0.08933931  0.86448442     1.25400
Ni1248     Ni  0.13473060  0.13778152  0.87490252     1.25400
C1249       C  0.14205664  0.07665358  0.92106518     0.89000
C1250       C  0.08100176  0.15338974  0.82137864     0.88900
C1251       C  0.15581479  0.08012338  0.82449329     0.89000
C1252       C  0.07046140  0.14633684  0.91605471     0.89100
O1253       O  0.07266162  0.89123548  0.15637284    -0.73200
O1254       O  0.12336580  0.82385555  0.09158110    -0.73200
O1255       O  0.07370262  0.81710259  0.14768798    -0.73300
O1256       O  0.12253540  0.89818727  0.10199066    -0.73300
O1257       O  0.16753670  0.89483338  0.14411785    -0.73200
O1258       O  0.11864669  0.81204665  0.18948627    -0.73200
O1259       O  0.16992314  0.82057212  0.13185548    -0.73200
O1260       O  0.11723512  0.88707609  0.19892616    -0.73300
Ni1261     Ni  0.09654494  0.85745220  0.12296400     1.25400
Ni1262     Ni  0.14509372  0.85313315  0.16763353     1.25400
C1263       C  0.08633232  0.90002740  0.18805135     0.89000
C1264       C  0.15593755  0.81357442  0.09956187     0.88900
C1265       C  0.08631372  0.80354698  0.17779717     0.89000
C1266       C  0.15313410  0.90966422  0.11559079     0.89100
O1267       O  0.90079538  0.11631223  0.17746479    -0.73200
O1268       O  0.81726182  0.16192994  0.13281929    -0.73200
O1269       O  0.82919032  0.10380586  0.18162540    -0.73300
O1270       O  0.88901901  0.17280313  0.12931285    -0.73300
O1271       O  0.89503373  0.13007257  0.08288276    -0.73200
O1272       O  0.82940389  0.06541788  0.13145262    -0.73200
O1273       O  0.82323172  0.12443887  0.08242611    -0.73200
O1274       O  0.90229071  0.07320122  0.13109246    -0.73300
Ni1275     Ni  0.85873681  0.14015215  0.15711349     1.25400
Ni1276     Ni  0.86239594  0.09662654  0.10532509     1.25400
C1277       C  0.91417123  0.08643555  0.16239492     0.89000
C1278       C  0.80986974  0.15397177  0.09858389     0.88900
C1279       C  0.82136484  0.07220720  0.16563335     0.89000
C1280       C  0.90057169  0.16277176  0.09697654     0.89100
C1281       C  0.28234449  0.05365485  0.05740706    -0.12000
C1282       C  0.30970091  0.06975610  0.06819371    -0.13600
C1283       C  0.18655124  0.96362177  0.08071995    -0.12000
C1284       C  0.17194726  0.93933163  0.09780531    -0.13600
C1285       C  0.15922133  0.05681237  0.95049982    -0.12000
C1286       C  0.17604597  0.04410197  0.97612405    -0.13600
C1287       C  0.18962025  0.17135469  0.30277285    -0.12000
C1288       C  0.17305941  0.15907791  0.32907777    -0.13600
C1289       C  0.28173531  0.17910808  0.20250843    -0.12000
C1290       C  0.30791131  0.16976900  0.18325065    -0.13600
C1291       C  0.03455423  0.04792089  0.31543321    -0.12000
C1292       C  0.05255924  0.06164705  0.34018817    -0.13600
C1293       C  0.96265291  0.05030605  0.20227111    -0.12000
C1294       C  0.94168994  0.06653888  0.18238875    -0.13600
C1295       C  0.06629789  0.92578833  0.21086598    -0.12000
C1296       C  0.04753841  0.94989975  0.22471859    -0.13600
C1297       C  0.17884214  0.26537559  0.21003506    -0.12000
C1298       C  0.16153428  0.29054863  0.19669230    -0.13600
C1299       C  0.05567072  0.30146941  0.07940315    -0.12000
C1300       C  0.03966384  0.28282978  0.05658487    -0.13600
C1301       C  0.02932162  0.18616238  0.96183870    -0.12000
C1302       C  0.04649266  0.16641711  0.94065821    -0.13600
C1303       C  0.91893000  0.18865336  0.07477718    -0.12000
C1304       C  0.93662351  0.20578919  0.05331147    -0.13600
C1305       C  0.92637527  0.29771209  0.57762467    -0.12000
C1306       C  0.94687608  0.27986292  0.55809906    -0.13600
C1307       C  0.94731614  0.16967436  0.44075863    -0.12000
C1308       C  0.96537556  0.19092391  0.45945099    -0.13600
C1309       C  0.04610143  0.29594143  0.47374929    -0.12000
C1310       C  0.06621446  0.31692241  0.45822589    -0.13600
C1311       C  0.91180074  0.55674579  0.33258168    -0.12000
C1312       C  0.92901969  0.53075216  0.31930784    -0.13600
C1313       C  0.93485625  0.42560568  0.23259655    -0.12000
C1314       C  0.91884413  0.40970332  0.20720592    -0.13600
C1315       C  0.02721024  0.43950644  0.33084553    -0.12000
C1316       C  0.05322993  0.42733345  0.34788732    -0.13600
C1317       C  0.81926023  0.41339912  0.55461600    -0.12000
C1318       C  0.80100291  0.42713179  0.53059982    -0.13600
C1319       C  0.78681206  0.53230251  0.45187333    -0.12000
C1320       C  0.80239535  0.55879544  0.43939713    -0.13600
C1321       C  0.69564470  0.43372749  0.44808334    -0.12000
C1322       C  0.66936432  0.41946643  0.43286752    -0.13600
C1323       C  0.82241202  0.17724905  0.34241856    -0.12000
C1324       C  0.80297645  0.20081449  0.32942217    -0.13600
C1325       C  0.67177971  0.30100749  0.33421896    -0.12000
C1326       C  0.69875241  0.28554029  0.32148772    -0.13600
C1327       C  0.81280902  0.29768133  0.20329915    -0.12000
C1328       C  0.79586639  0.28489305  0.22872411    -0.13600
C1329       C  0.92592783  0.56539097  0.69986356    -0.12000
C1330       C  0.94583981  0.54881035  0.72025849    -0.13600
C1331       C  0.05275877  0.43381316  0.69929672    -0.12000
C1332       C  0.02985662  0.44829235  0.71826663    -0.13600
C1333       C  0.06447573  0.54977130  0.83157037    -0.12000
C1334       C  0.04007635  0.53680392  0.81313289    -0.13600
C1335       C  0.32208877  0.56766542  0.57841132    -0.12000
C1336       C  0.29431330  0.55556319  0.56337040    -0.13600
C1337       C  0.16586150  0.45447981  0.58203891    -0.12000
C1338       C  0.18458006  0.47784114  0.56766209    -0.13600
C1339       C  0.30171853  0.68593764  0.70630740    -0.12000
C1340       C  0.32738365  0.67534077  0.68768208    -0.13600
C1341       C  0.20355791  0.67040327  0.79680278    -0.12000
C1342       C  0.18523015  0.65553486  0.82005904    -0.13600
C1343       C  0.20631261  0.77777409  0.71996899    -0.12000
C1344       C  0.19007099  0.80348665  0.70696441    -0.13600
C1345       C  0.19811258  0.56248187  0.46755466    -0.12000
C1346       C  0.18103628  0.57411308  0.44134728    -0.13600
C1347       C  0.05912585  0.69234490  0.47173983    -0.12000
C1348       C  0.07381283  0.68015021  0.44372904    -0.13600
C1349       C  0.94092818  0.66991737  0.58464651    -0.12000
C1350       C  0.96702551  0.68424269  0.56980704    -0.13600
C1351       C  0.08116312  0.79941558  0.59795170    -0.12000
C1352       C  0.06549370  0.77488423  0.58047208    -0.13600
C1353       C  0.70395114  0.30453555  0.69690570    -0.12000
C1354       C  0.68578600  0.32619298  0.67990763    -0.13600
C1355       C  0.69536315  0.21402062  0.79125252    -0.12000
C1356       C  0.67699851  0.19843432  0.81358763    -0.13600
C1357       C  0.81957958  0.19022976  0.69084383    -0.12000
C1358       C  0.79645275  0.20907459  0.70607658    -0.13600
C1359       C  0.46314378  0.18946587  0.54509257    -0.12000
C1360       C  0.43768360  0.17339625  0.55900062    -0.13600
C1361       C  0.56041982  0.20106643  0.45461517    -0.12000
C1362       C  0.57691981  0.18625047  0.42915870    -0.13600
C1363       C  0.56835881  0.31534413  0.57321411    -0.12000
C1364       C  0.55214485  0.29028872  0.55711569    -0.13600
C1365       C  0.68000842  0.07165362  0.43279581    -0.12000
C1366       C  0.69732807  0.05884293  0.45801373    -0.13600
C1367       C  0.69944375  0.96403960  0.54974112    -0.12000
C1368       C  0.68302846  0.93788577  0.56240273    -0.13600
C1369       C  0.79007015  0.06507520  0.55580296    -0.12000
C1370       C  0.81484137  0.08078602  0.57279757    -0.13600
C1371       C  0.46525178  0.05829240  0.68619221    -0.12000
C1372       C  0.43913980  0.07216755  0.67088683    -0.13600
C1373       C  0.55840648  0.06684910  0.78277052    -0.12000
C1374       C  0.57191595  0.08390931  0.80899284    -0.13600
C1375       C  0.56369432  0.96668496  0.68800352    -0.12000
C1376       C  0.57858496  0.94021130  0.67249155    -0.13600
C1377       C  0.41068640  0.56911463  0.18749231    -0.12000
C1378       C  0.43680989  0.55613626  0.20265993    -0.13600
C1379       C  0.53263704  0.47081317  0.17012012    -0.12000
C1380       C  0.54553804  0.44576777  0.15148997    -0.13600
C1381       C  0.44354153  0.69512678  0.06267402    -0.12000
C1382       C  0.42038044  0.67718028  0.07781619    -0.13600
C1383       C  0.51958269  0.80482958  0.05938006    -0.12000
C1384       C  0.53911711  0.82765560  0.07412278    -0.13600
C1385       C  0.54554806  0.70278322  0.97766200    -0.12000
C1386       C  0.56788766  0.68948959  0.95672591    -0.13600
C1387       C  0.66472414  0.42177975  0.04511933    -0.12000
C1388       C  0.68832626  0.43903058  0.03045647    -0.13600
C1389       C  0.78866919  0.52197289  0.05685500    -0.12000
C1390       C  0.81009019  0.53814919  0.07708173    -0.13600
C1391       C  0.67832423  0.56968748  0.94890710    -0.12000
C1392       C  0.69822823  0.54915809  0.96506803    -0.13600
C1393       C  0.55077010  0.56108711  0.27127464    -0.12000
C1394       C  0.56874953  0.57607210  0.29558291    -0.13600
C1395       C  0.69158879  0.70460846  0.29273457    -0.12000
C1396       C  0.67366879  0.69192558  0.31706092    -0.13600
C1397       C  0.77238668  0.68688382  0.18728405    -0.12000
C1398       C  0.79699060  0.66801966  0.17377734    -0.13600
C1399       C  0.65427297  0.80546622  0.17942732    -0.12000
C1400       C  0.67406315  0.78095474  0.18992454    -0.13600
C1401       C  0.33062152  0.55375220  0.91303935    -0.12000
C1402       C  0.31171303  0.52966754  0.92570168    -0.13600
C1403       C  0.20341961  0.45133117  0.93961245    -0.12000
C1404       C  0.17533645  0.43806889  0.92656871    -0.13600
C1405       C  0.29981598  0.45737916  0.03426507    -0.12000
C1406       C  0.31577625  0.44670746  0.06133616    -0.13600
C1407       C  0.55259690  0.46718953  0.80791431    -0.12000
C1408       C  0.57478311  0.45243838  0.82741789    -0.13600
C1409       C  0.46421064  0.56299056  0.78820487    -0.12000
C1410       C  0.44424762  0.58348950  0.80543400    -0.13600
C1411       C  0.45575049  0.45089072  0.71680174    -0.12000
C1412       C  0.43365042  0.43582117  0.69670003    -0.13600
C1413       C  0.53842959  0.32102631  0.93914732    -0.12000
C1414       C  0.56556278  0.33482351  0.92560918    -0.13600
C1415       C  0.44143401  0.32658636  0.03246024    -0.12000
C1416       C  0.42423177  0.33972452  0.05841909    -0.13600
C1417       C  0.43690999  0.23203502  0.93415236    -0.12000
C1418       C  0.42044033  0.20621222  0.91931365    -0.13600
C1419       C  0.29005309  0.21717296  0.79772101    -0.12000
C1420       C  0.31074048  0.19406228  0.80927412    -0.13600
C1421       C  0.29311562  0.31486882  0.71299409    -0.12000
C1422       C  0.31315191  0.33025407  0.69235051    -0.13600
C1423       C  0.19519508  0.31357433  0.80166015    -0.12000
C1424       C  0.17028814  0.33076625  0.81610763    -0.13600
C1425       C  0.44176239  0.79318885  0.53664667    -0.12000
C1426       C  0.42535221  0.81400810  0.55741218    -0.13600
C1427       C  0.30610362  0.95845752  0.55173572    -0.12000
C1428       C  0.32407692  0.94040525  0.57232539    -0.13600
C1429       C  0.30686044  0.04408142  0.45403278    -0.12000
C1430       C  0.32543016  0.06541526  0.43743471    -0.13600
C1431       C  0.21699014  0.94577944  0.45565053    -0.12000
C1432       C  0.19540626  0.92485578  0.44083782    -0.13600
C1433       C  0.56543360  0.80782412  0.44237693    -0.12000
C1434       C  0.54802088  0.78877443  0.46222045    -0.13600
C1435       C  0.53102210  0.94093596  0.30763138    -0.12000
C1436       C  0.55066108  0.92254945  0.32663612    -0.13600
C1437       C  0.46134849  0.96200919  0.19719631    -0.12000
C1438       C  0.44329972  0.94724003  0.17323042    -0.13600
C1439       C  0.44970974  0.04586807  0.30123948    -0.12000
C1440       C  0.43141968  0.06820023  0.31830602    -0.13600
C1441       C  0.44860389  0.67374829  0.42184143    -0.12000
C1442       C  0.46182762  0.69389276  0.44528760    -0.13600
C1443       C  0.22628860  0.80085241  0.31312533    -0.12000
C1444       C  0.20056199  0.81096292  0.33143896    -0.13600
C1445       C  0.32799142  0.71807873  0.29379889    -0.12000
C1446       C  0.34334222  0.69184671  0.30643456    -0.13600
C1447       C  0.33156580  0.84203352  0.19526446    -0.12000
C1448       C  0.31731295  0.82655101  0.22040937    -0.13600
C1449       C  0.94929843  0.91207894  0.69630723    -0.12000
C1450       C  0.96570955  0.92872241  0.72066871    -0.13600
C1451       C  0.05483834  0.94185142  0.81983825    -0.12000
C1452       C  0.07816781  0.92832417  0.83895203    -0.13600
C1453       C  0.93501960  0.04936401  0.83082771    -0.12000
C1454       C  0.95343100  0.02684525  0.81389817    -0.13600
C1455       C  0.95942630  0.71568324  0.95881377    -0.12000
C1456       C  0.94287455  0.69137920  0.94204160    -0.13600
C1457       C  0.95053966  0.79804415  0.06587397    -0.12000
C1458       C  0.93191276  0.80965227  0.09126158    -0.13600
C1459       C  0.04807827  0.81555694  0.97627957    -0.12000
C1460       C  0.07274171  0.83147635  0.96092255    -0.13600
C1461       C  0.81424143  0.02392605  0.96327704    -0.12000
C1462       C  0.82983726  0.04858122  0.94750675    -0.13600
C1463       C  0.71576736  0.93289053  0.96451169    -0.12000
C1464       C  0.68899079  0.92067722  0.94785691    -0.13600
C1465       C  0.81190165  0.93468351  0.06107834    -0.12000
C1466       C  0.82815838  0.92217626  0.08747302    -0.13600
C1467       C  0.81790362  0.72178580  0.81636719    -0.12000
C1468       C  0.83417042  0.69728183  0.83190206    -0.13600
C1469       C  0.71384118  0.80638219  0.81555765    -0.12000
C1470       C  0.68717317  0.81828413  0.83252113    -0.13600
C1471       C  0.80730538  0.80836464  0.71660924    -0.12000
C1472       C  0.82486063  0.81947792  0.69045343    -0.13600
loop_ 
_geom_bond_atom_site_label_1 
_geom_bond_atom_site_label_2 
_geom_bond_distance 
_geom_bond_site_symmetry_2 
_ccdc_geom_bond_type 
O1           Ni7   1.894       .  S
O1           C22   1.264       .  A
O2          Ni25   1.914       .  S
O2           C11   1.267       .  A
O3           Ni7   1.888       .  S
O3          Ni25   1.903       .  S
O3          Ni19   1.906       .  S
O3           H26   0.965       .  S
C4           O21   1.278       .  A
C4           O13   1.273       .  A
C4          C618   1.445       .  S
O5          Ni24   1.887       .  S
O5           C11   1.263       .  A
O6          Ni24   1.917       .  S
O6            C8   1.267       .  A
Ni7          O10   1.904       .  S
Ni7          O12   1.920       .  S
C8           O18   1.283       .  A
C8          C975   1.511       .  S
O9          Ni25   1.920       .  S
O9           C15   1.278       .  A
O10          C15   1.275       .  A
C11         C412   1.447       .  S
O12          C14   1.268       .  A
O13         Ni24   1.900       .  S
C14          O20   1.282       .  A
C14        C1057   1.515       .  S
C15         C681   1.452       .  S
H16          O17   0.968       .  S
O17         Ni25   1.904       .  S
O17         Ni19   1.909       .  S
O17         Ni24   1.894       .  S
O18         Ni19   1.988       .  S
Ni19         O23   1.933       .  S
Ni19         O21   1.912       .  S
O20         Ni25   1.990       .  S
C22          O23   1.272       .  A
C22         C886   1.463       .  S
O27         Ni33   1.901       .  S
O27          C48   1.265       .  A
O28         Ni51   1.921       .  S
O28          C37   1.272       .  A
O29         Ni33   1.896       .  S
O29         Ni51   1.904       .  S
O29         Ni45   1.927       .  S
O29          H52   0.968       .  S
C30          O47   1.283       .  A
C30          O39   1.276       .  A
C30         C632   1.484       .  S
O31         Ni50   1.905       .  S
O31          C37   1.270       .  A
O32         Ni50   1.933       .  S
O32          C34   1.273       .  A
Ni33         O36   1.927       .  S
Ni33         O38   1.918       .  S
C34          O44   1.279       .  A
C34        C1236   1.513       .  S
O35         Ni51   1.972       .  S
O35          C41   1.292       .  A
O36          C41   1.277       .  A
C37         C487   1.462       .  S
O38          C40   1.269       .  A
O39         Ni50   1.926       .  S
C40          O46   1.279       .  A
C40        C1056   1.510       .  S
C41         C852   1.501       .  S
H42          O43   0.966       .  S
O43         Ni51   1.933       .  S
O43         Ni45   1.902       .  S
O43         Ni50   1.899       .  S
O44         Ni45   1.977       .  S
Ni45         O49   1.912       .  S
Ni45         O47   1.945       .  S
O46         Ni51   1.980       .  S
C48          O49   1.266       .  A
C48         C727   1.452       .  S
C53          N54   1.356       .  A
C53          N58   1.369       .  A
C53        C1471   1.451       .  S
N54          C55   1.354       .  A
C55          N56   1.357       .  A
C55        C1467   1.435       .  S
N56          C57   1.358       .  A
C57          N58   1.369       .  A
C57        C1469   1.455       .  S
C59          N60   1.357       .  A
C59          N64   1.354   1_556  A
C59        C1461   1.434   1_565  S
N60          C61   1.358       .  A
C61          N62   1.368   1_556  A
C61        C1463   1.454       .  S
N62          C63   1.368       .  A
C63          N64   1.355       .  A
C63        C1465   1.449       .  S
C65          N66   1.356   1_655  A
C65          N70   1.351   1_556  A
C65        C1455   1.429       .  S
N66          C67   1.359       .  A
C67          N68   1.360   1_556  A
C67        C1459   1.438       .  S
N68          C69   1.360   1_455  A
C69          N70   1.351       .  A
C69        C1457   1.430       .  S
C71          N72   1.353       .  A
C71          N76   1.352   1_655  A
C71        C1454   1.423   1_565  S
N72          C73   1.354       .  A
C73          N74   1.357   1_655  A
C73        C1450   1.428       .  S
N74          C75   1.358       .  A
C75          N76   1.353       .  A
C75        C1451   1.428       .  S
O77         Ni85   1.921       .  S
O77          C87   1.281       .  A
O78         Ni85   1.951       .  S
O78          C88   1.287       .  A
O79         Ni85   1.942       .  S
O79          C89   1.285       .  A
O80         Ni85   1.924       .  S
O80          C90   1.281       .  A
O81         Ni86   1.918       .  S
O81          C90   1.280       .  A
O82         Ni86   1.929       .  S
O82          C89   1.285       .  A
O83         Ni86   1.914       .  S
O83          C88   1.281       .  A
O84         Ni86   1.904       .  S
O84          C87   1.276       .  A
Ni85        Ni86   2.390       .  S
C87        C1452   1.427       .  S
C88         C246   1.489       .  S
C89         C294   1.494       .  S
C90        C1460   1.438       .  S
O91         Ni99   1.897       .  S
O91         C101   1.274       .  A
O92         Ni99   1.940       .  S
O92         C102   1.282       .  A
O93         Ni99   1.967       .  S
O93         C103   1.295       .  A
O94         Ni99   1.948       .  S
O94         C104   1.288       .  A
O95        Ni100   1.908       .  S
O95         C104   1.275       .  A
O96        Ni100   1.943       .  S
O96         C103   1.283       .  A
O97        Ni100   1.949       .  S
O97         C102   1.291       .  A
O98        Ni100   1.929       .  S
O98         C101   1.283       .  A
Ni99       Ni100   2.385       .  S
C101       C1458   1.428       .  S
C102        C510   1.509       .  S
C103        C350   1.521       .  S
C104       C1466   1.447       .  S
O105       Ni113   1.914       .  S
O105        C115   1.278       .  A
O106       Ni113   1.941       .  S
O106        C116   1.283       .  A
O107       Ni113   1.967       .  S
O107        C117   1.291       .  A
O108       Ni113   1.945       .  S
O108        C118   1.287       .  A
O109       Ni114   1.918       .  S
O109        C118   1.278       .  A
O110       Ni114   1.920       .  S
O110        C117   1.281       .  A
O111       Ni114   1.915       .  S
O111        C116   1.284       .  A
O112       Ni114   1.910       .  S
O112        C115   1.279       .  A
Ni113      Ni114   2.387       .  S
C115       C1449   1.428       .  S
C116        C327   1.488       .  S
C117        C810   1.502       .  S
C118       C1472   1.452       .  S
O119       Ni127   1.922       .  S
O119        C129   1.282       .  A
O120       Ni127   1.933       .  S
O120        C130   1.280       .  A
O121       Ni127   1.911       .  S
O121        C131   1.283       .  A
O122       Ni127   1.910       .  S
O122        C132   1.278       .  A
O123       Ni128   1.924       .  S
O123        C132   1.281       .  A
O124       Ni128   1.927       .  S
O124        C131   1.280       .  A
O125       Ni128   1.905       .  S
O125        C130   1.282       .  A
O126       Ni128   1.906       .  S
O126        C129   1.276       .  A
Ni127      Ni128   2.392       .  S
C129       C1456   1.429       .  S
C130        C781   1.471       .  S
C131        C275   1.471       .  S
C132       C1468   1.434       .  S
O133       Ni141   1.952       .  S
O133        C143   1.288       .  A
O134       Ni141   1.978       .  S
O134        C144   1.293       .  A
O135       Ni141   1.955       .  S
O135        C145   1.286       .  A
O136       Ni141   1.924       .  S
O136        C146   1.279       .  A
O137       Ni142   1.941       .  S
O137        C146   1.285       .  A
O138       Ni142   1.966       .  S
O138        C145   1.293       .  A
O139       Ni142   1.951       .  S
O139        C144   1.288       .  A
O140       Ni142   1.915       .  S
O140        C143   1.277       .  A
Ni141      Ni142   2.380       .  S
C143       C1470   1.454       .  S
C144        C376   1.531       .  S
C145        C226   1.526       .  S
C146       C1464   1.454       .  S
O147       Ni155   1.926       .  S
O147        C157   1.282       .  A
O148       Ni155   1.934       .  S
O148        C158   1.284       .  A
O149       Ni155   1.937       .  S
O149        C159   1.282       .  A
O150       Ni155   1.912       .  S
O150        C160   1.279       .  A
O151       Ni156   1.904       .  S
O151        C160   1.277       .  A
O152       Ni156   1.901       .  S
O152        C159   1.282       .  A
O153       Ni156   1.903       .  S
O153        C158   1.278       .  A
O154       Ni156   1.906       .  S
O154        C157   1.277       .  A
Ni155      Ni156   2.393       .  S
C157       C1462   1.432       .  S
C158       C1161   1.467       .  S
C159        C550   1.473       .  S
C160       C1453   1.423       .  S
O161       Ni167   1.896       .  S
O161        C182   1.264       .  A
O162       Ni185   1.935       .  S
O162        C171   1.272       .  A
O163       Ni167   1.890       .  S
O163       Ni185   1.901       .  S
O163       Ni179   1.931       .  S
O163        H186   0.968       .  S
C164        O181   1.287       .  A
C164        O173   1.278       .  A
C164        C713   1.471       .  S
O165       Ni184   1.888       .  S
O165        C171   1.262       .  A
O166       Ni184   1.904       .  S
O166        C168   1.265       .  A
Ni167       O170   1.936       .  S
Ni167       O172   1.904       .  S
C168        O178   1.279       .  A
C168        C633   1.496       .  S
O169       Ni185   1.938       .  S
O169        C175   1.284       .  A
O170        C175   1.279       .  A
C171       C1190   1.457       .  S
O172        C174   1.265       .  A
O173       Ni184   1.924       .  S
C174        O180   1.281       .  A
C174        C949   1.499       .  S
C175       C1088   1.482       .  S
H176        O177   0.966       .  S
O177       Ni185   1.929       .  S
O177       Ni179   1.887       .  S
O177       Ni184   1.878       .  S
O178       Ni179   1.974       .  S
Ni179       O183   1.921       .  S
Ni179       O181   1.941       .  S
O180       Ni185   1.979       .  S
C182        O183   1.267       .  A
C182        C413   1.452       .  S
O187       Ni193   1.895       .  S
O187        C208   1.265       .  A
O188       Ni211   1.956       .  S
O188        C197   1.276       .  A
O189       Ni193   1.886       .  S
O189       Ni211   1.913       .  S
O189       Ni205   1.919       .  S
O189        H212   0.967       .  S
C190        O207   1.277       .  A
C190        O199   1.276       .  A
C190        C994   1.454       .  S
O191       Ni210   1.894       .  S
O191        C197   1.264       .  A
O192       Ni210   1.912       .  S
O192        C194   1.267       .  A
Ni193       O196   1.906       .  S
Ni193       O198   1.916       .  S
C194        O204   1.280       .  A
C194       C1089   1.501       .  S
O195       Ni211   1.941       .  S
O195        C201   1.287       .  A
O196        C201   1.275       .  A
C197       C1217   1.481       .  S
O198        C200   1.268       .  A
O199       Ni210   1.911       .  S
C200        O206   1.283       .  A
C200        C867   1.512       .  S
C201        C486   1.463       .  S
H202        O203   0.968       .  S
O203       Ni211   1.928       .  S
O203       Ni205   1.914       .  S
O203       Ni210   1.893       .  S
O204       Ni205   1.978       .  S
Ni205       O209   1.936       .  S
Ni205       O207   1.917       .  S
O206       Ni211   1.988       .  S
C208        O209   1.269       .  A
C208        C619   1.465       .  S
O213       Ni219   1.919       .  S
O213        C234   1.272       .  A
O214       Ni237   1.946       .  S
O214        C223   1.272       .  A
O215       Ni219   1.906       .  S
O215       Ni237   1.926       .  S
O215       Ni231   1.917       .  S
O215        H238   0.965       .  S
C216        O233   1.282       .  A
C216        O225   1.272       .  A
C216        C472   1.450       .  S
O217       Ni236   1.892       .  S
O217        C223   1.264       .  A
O218       Ni236   1.921       .  S
O218        C220   1.269       .  A
Ni219       O222   1.925       .  S
Ni219       O224   1.931       .  S
C220        O230   1.292       .  A
C220        C974   1.531       .  S
O221       Ni237   1.898       .  S
O221        C227   1.272       .  A
O222        C227   1.277       .  A
C223        C591   1.472       .  S
O224        C226   1.272       .  A
O225       Ni236   1.895       .  S
C226        O232   1.287       .  A
C227        C741   1.453       .  S
H228        O229   0.966       .  S
O229       Ni237   1.905       .  S
O229       Ni231   1.919       .  S
O229       Ni236   1.898       .  S
O230       Ni231   2.015       .  S
Ni231       O235   1.957       .  S
Ni231       O233   1.926       .  S
O232       Ni237   1.998       .  S
C234        O235   1.281       .  A
C234        C900   1.495       .  S
O239       Ni245   1.890       .  S
O239        C260   1.260       .  A
O240       Ni263   1.935       .  S
O240        C249   1.269       .  A
O241       Ni245   1.901   1_556  S
O241       Ni263   1.913       .  S
O241       Ni257   1.917   1_556  S
O241        H264   0.968       .  S
C242        O259   1.279       .  A
C242        O251   1.273       .  A
C242       C1264   1.463       .  S
O243       Ni262   1.900   1_556  S
O243        C249   1.265       .  A
O244       Ni262   1.909   1_556  S
O244        C246   1.268       .  A
Ni245       O248   1.904   1_554  S
Ni245       O250   1.902       .  S
C246        O256   1.274       .  A
O247       Ni263   1.931       .  S
O247        C253   1.283       .  A
O248        C253   1.273       .  A
C249       C1037   1.470       .  S
O250        C252   1.265       .  A
O251       Ni262   1.911       .  S
C252        O258   1.268       .  A
C252        C712   1.474       .  S
C253        C590   1.460       .  S
H254        O255   0.966       .  S
O255       Ni263   1.922   1_554  S
O255       Ni257   1.918       .  S
O255       Ni262   1.895       .  S
O256       Ni257   1.960   1_556  S
Ni257       O261   1.928       .  S
Ni257       O259   1.928       .  S
O258       Ni263   1.944   1_554  S
C260        O261   1.266       .  A
C260        C447   1.460       .  S
O265       Ni271   1.905       .  S
O265        C286   1.268       .  A
O266       Ni289   1.928       .  S
O266        C275   1.275       .  A
O267       Ni271   1.895       .  S
O267       Ni289   1.909   1_454  S
O267       Ni283   1.924   1_455  S
O267        H290   0.966       .  S
C268        O285   1.282       .  A
C268        O277   1.273       .  A
C268       C1116   1.490       .  S
O269       Ni288   1.913   1_556  S
O269        C275   1.269       .  A
O270       Ni288   1.913       .  S
O270        C272   1.270       .  A
Ni271       O274   1.919   1_554  S
Ni271       O276   1.917   1_554  S
C272        O282   1.287       .  A
C272        C755   1.509       .  S
O273       Ni289   1.958   1_455  S
O273        C279   1.288       .  A
O274        C279   1.276       .  A
O276        C278   1.269       .  A
O277       Ni288   1.924       .  S
C278        O284   1.281       .  A
C278        C660   1.507       .  S
C279       C1036   1.488       .  S
H280        O281   0.965   1_556  S
O281       Ni289   1.940   1_554  S
O281       Ni283   1.923       .  S
O281       Ni288   1.905       .  S
O282       Ni283   1.992       .  S
Ni283       O287   1.936   1_655  S
Ni283       O285   1.954       .  S
O284       Ni289   1.983   1_455  S
C286        O287   1.274       .  A
C286       C1191   1.472       .  S
O291       Ni297   1.912       .  S
O291        C312   1.268       .  A
O292       Ni315   1.948   1_565  S
O292        C301   1.277       .  A
O293       Ni297   1.899       .  S
O293       Ni315   1.919       .  S
O293       Ni309   1.938   1_545  S
O293        H316   0.966       .  S
C294        O311   1.291       .  A
C294        O303   1.275       .  A
O295       Ni314   1.894       .  S
O295        C301   1.265       .  A
O296       Ni314   1.910       .  S
O296        C298   1.267       .  A
Ni297       O300   1.929       .  S
Ni297       O302   1.902       .  S
C298        O308   1.273       .  A
C298       C1022   1.486       .  S
O299       Ni315   1.965       .  S
O299        C305   1.288       .  A
O300        C305   1.275       .  A
C301        C473   1.474       .  S
O302        C304   1.268       .  A
O303       Ni314   1.924       .  S
C304        O310   1.284       .  A
C304        C646   1.493       .  S
C305        C866   1.499       .  S
H306        O307   0.966       .  S
O307       Ni315   1.939   1_565  S
O307       Ni309   1.905       .  S
O307       Ni314   1.898       .  S
O308       Ni309   1.957       .  S
Ni309       O313   1.927   1_565  S
Ni309       O311   1.968       .  S
O310       Ni315   1.979       .  S
C312        O313   1.272       .  A
C312       C1251   1.469       .  S
O317       Ni323   1.879       .  S
O317        C338   1.259       .  A
O318       Ni341   1.951       .  S
O318        C327   1.279       .  A
O319       Ni323   1.917       .  S
O319       Ni341   1.931       .  S
O319       Ni335   1.930       .  S
O319        H342   0.966       .  S
C320        O337   1.272       .  A
C320        O329   1.267       .  A
C320        C433   1.466       .  S
O321       Ni340   1.903       .  S
O321        C327   1.266       .  A
O322       Ni340   1.908       .  S
O322        C324   1.270       .  A
Ni323       O326   1.912       .  S
Ni323       O328   1.902       .  S
C324        O334   1.289       .  A
C324        C901   1.495       .  S
O325       Ni341   1.930       .  S
O325        C331   1.271       .  A
O326        C331   1.263       .  A
O328        C330   1.266       .  A
O329       Ni340   1.916       .  S
C330        O336   1.287       .  A
C330       C1130   1.483       .  S
C331       C1009   1.473       .  S
H332        O333   0.966       .  S
O333       Ni341   1.920       .  S
O333       Ni335   1.928       .  S
O333       Ni340   1.909       .  S
O334       Ni335   1.998       .  S
Ni335       O339   1.955       .  S
Ni335       O337   1.924       .  S
O336       Ni341   1.986       .  S
C338        O339   1.280       .  A
C338        C680   1.478       .  S
O343       Ni349   1.894       .  S
O343        C364   1.263       .  A
O344       Ni367   1.952       .  S
O344        C353   1.279       .  A
O345       Ni349   1.903       .  S
O345       Ni367   1.918   1_655  S
O345       Ni361   1.928       .  S
O345        H368   0.963       .  S
C346        O363   1.290       .  A
C346        O355   1.276       .  A
C346        C754   1.492       .  S
O347       Ni366   1.901   1_455  S
O347        C353   1.266       .  A
O348       Ni366   1.924       .  S
O348        C350   1.270       .  A
Ni349       O352   1.913   1_655  S
Ni349       O354   1.904   1_655  S
C350        O360   1.285       .  A
O351       Ni367   1.929       .  S
O351        C357   1.282       .  A
O352        C357   1.272       .  A
C353       C1265   1.481       .  S
O354        C356   1.266       .  A
O355       Ni366   1.919       .  S
C356        O362   1.286       .  A
C356        C948   1.502       .  S
C357        C500   1.463       .  S
H358        O359   0.969       .  S
O359       Ni367   1.919       .  S
O359       Ni361   1.916   1_455  S
O359       Ni366   1.898   1_455  S
O360       Ni361   1.996       .  S
Ni361       O365   1.951       .  S
Ni361       O363   1.963       .  S
O362       Ni367   1.989       .  S
C364        O365   1.278       .  A
C364       C1131   1.477       .  S
O369       Ni375   1.895   1_564  S
O369        C390   1.265       .  A
O370       Ni393   1.942       .  S
O370        C379   1.279       .  A
O371       Ni375   1.897       .  S
O371       Ni393   1.917       .  S
O371       Ni387   1.918   1_546  S
O371        H394   0.965   1_545  S
C372        O389   1.279       .  A
C372        O381   1.276       .  A
C372        C768   1.466       .  S
O373       Ni392   1.911       .  S
O373        C379   1.271       .  A
O374       Ni392   1.934   1_565  S
O374        C376   1.273       .  A
Ni375       O378   1.896       .  S
Ni375       O380   1.928   1_556  S
C376        O386   1.287       .  A
O377       Ni393   1.956       .  S
O377        C383   1.286       .  A
O378        C383   1.272       .  A
C379        C928   1.480       .  S
O380        C382   1.271       .  A
O381       Ni392   1.918   1_564  S
C382        O388   1.291       .  A
C382       C1237   1.533       .  S
C383        C647   1.473       .  S
H384        O385   0.966       .  S
O385       Ni393   1.922   1_554  S
O385       Ni387   1.914   1_545  S
O385       Ni392   1.897   1_554  S
O386       Ni387   2.002   1_556  S
Ni387       O391   1.932       .  S
Ni387       O389   1.931       .  S
O388       Ni393   2.011   1_554  S
C390        O391   1.272       .  A
C390        C446   1.464       .  S
C395        N396   1.356       .  A
C395        N400   1.350       .  A
C395       C1443   1.419       .  S
N396        C397   1.355       .  A
C397        N398   1.350       .  A
C397       C1448   1.416       .  S
N398        C399   1.348       .  A
C399        N400   1.351       .  A
C399       C1445   1.410       .  S
O401       Ni409   1.905       .  S
O401        C411   1.277       .  A
O402       Ni409   1.910       .  S
O402        C412   1.278       .  A
O403       Ni409   1.933       .  S
O403        C413   1.283       .  A
O404       Ni409   1.924       .  S
O404        C414   1.283       .  A
O405       Ni410   1.873       .  S
O405        C414   1.269       .  A
O406       Ni410   1.867       .  S
O406        C413   1.274       .  A
O407       Ni410   1.884       .  S
O407        C412   1.278       .  A
O408       Ni410   1.892       .  S
O408        C411   1.275       .  A
Ni409      Ni410   2.400       .  S
C411       C1446   1.409       .  S
C414       C1441   1.409       .  S
C415        N416   1.354       .  A
C415        N420   1.350   1_565  A
C415       C1437   1.413       .  S
N416        C417   1.354       .  A
C417        N418   1.352       .  A
C417       C1435   1.420       .  S
N418        C419   1.352   1_565  A
C419        N420   1.349       .  A
C419       C1439   1.415       .  S
O421       Ni429   1.901       .  S
O421        C431   1.278       .  A
O422       Ni429   1.922       .  S
O422        C432   1.282       .  A
O423       Ni429   1.921       .  S
O423        C433   1.281       .  A
O424       Ni429   1.906       .  S
O424        C434   1.277       .  A
O425       Ni430   1.907       .  S
O425        C434   1.278       .  A
O426       Ni430   1.906       .  S
O426        C433   1.281       .  A
O427       Ni430   1.890       .  S
O427        C432   1.276       .  A
O428       Ni430   1.882       .  S
O428        C431   1.272       .  A
Ni429      Ni430   2.398       .  S
C431       C1433   1.401       .  S
C432        C517   1.454       .  S
C434       C1436   1.419       .  S
O435       Ni443   1.895       .  S
O435        C445   1.274       .  A
O436       Ni443   1.895       .  S
O436        C446   1.280       .  A
O437       Ni443   1.923       .  S
O437        C447   1.280       .  A
O438       Ni443   1.914       .  S
O438        C448   1.280       .  A
O439       Ni444   1.889       .  S
O439        C448   1.273       .  A
O440       Ni444   1.896       .  S
O440        C447   1.280       .  A
O441       Ni444   1.922       .  S
O441        C446   1.280       .  A
O442       Ni444   1.914       .  S
O442        C445   1.280       .  A
Ni443      Ni444   2.397       .  S
C445       C1447   1.416       .  S
C448       C1438   1.413       .  S
C449        N450   1.356   1_545  A
C449        N454   1.349       .  A
C449       C1429   1.414       .  S
N450        C451   1.355       .  A
C451        N452   1.351       .  A
C451       C1431   1.420       .  S
N452        C453   1.350       .  A
C453        N454   1.348   1_565  A
C453       C1427   1.409       .  S
C455        N456   1.358       .  A
C455        N460   1.344       .  A
C455       C1442   1.411       .  S
N456        C457   1.357       .  A
C457        N458   1.349       .  A
C457       C1425   1.421       .  S
N458        C459   1.348       .  A
C459        N460   1.344       .  A
C459       C1434   1.399       .  S
O461       Ni469   1.895       .  S
O461        C471   1.275       .  A
O462       Ni469   1.893       .  S
O462        C472   1.277       .  A
O463       Ni469   1.890       .  S
O463        C473   1.280       .  A
O464       Ni469   1.893       .  S
O464        C474   1.273       .  A
O465       Ni470   1.921       .  S
O465        C474   1.282       .  A
O466       Ni470   1.944       .  S
O466        C473   1.284       .  A
O467       Ni470   1.915       .  S
O467        C472   1.280       .  A
O468       Ni470   1.900       .  S
O468        C471   1.276       .  A
Ni469      Ni470   2.397       .  S
C471       C1428   1.409       .  S
C474       C1426   1.421       .  S
O475       Ni483   1.913       .  S
O475        C485   1.279       .  A
O476       Ni483   1.924       .  S
O476        C486   1.282       .  A
O477       Ni483   1.900       .  S
O477        C487   1.280       .  A
O478       Ni483   1.886       .  S
O478        C488   1.273       .  A
O479       Ni484   1.915       .  S
O479        C488   1.281       .  A
O480       Ni484   1.921       .  S
O480        C487   1.280       .  A
O481       Ni484   1.902       .  S
O481        C486   1.279       .  A
O482       Ni484   1.895       .  S
O482        C485   1.275       .  A
Ni483      Ni484   2.396       .  S
C485       C1440   1.415       .  S
C488       C1430   1.413       .  S
O489       Ni497   1.902       .  S
O489        C499   1.276       .  A
O490       Ni497   1.909       .  S
O490        C500   1.278       .  A
O491       Ni497   1.906       .  S
O491        C501   1.283       .  A
O492       Ni497   1.895       .  S
O492        C502   1.275       .  A
O493       Ni498   1.917       .  S
O493        C502   1.280       .  A
O494       Ni498   1.928       .  S
O494        C501   1.280       .  A
O495       Ni498   1.920       .  S
O495        C500   1.284       .  A
O496       Ni498   1.913       .  S
O496        C499   1.280       .  A
Ni497      Ni498   2.396       .  S
C499       C1432   1.420       .  S
C501        C807   1.470       .  S
C502       C1444   1.418       .  S
O503       Ni509   1.899       .  S
O503        C524   1.265       .  A
O504       Ni527   1.932       .  S
O504        C513   1.274       .  A
O505       Ni509   1.902   1_565  S
O505       Ni527   1.918       .  S
O505       Ni521   1.915   1_565  S
O505        H528   0.967       .  S
C506        O523   1.284       .  A
C506        O515   1.274       .  A
C506       C1279   1.467       .  S
O507       Ni526   1.897       .  S
O507        C513   1.263       .  A
O508       Ni526   1.917       .  S
O508        C510   1.268       .  A
Ni509       O512   1.901   1_545  S
Ni509       O514   1.916       .  S
C510        O520   1.281       .  A
O511       Ni527   1.923       .  S
O511        C517   1.278       .  A
O512        C517   1.271       .  A
C513        C769   1.467       .  S
O514        C516   1.270       .  A
O515       Ni526   1.908   1_545  S
C516        O522   1.285       .  A
C516        C853   1.511       .  S
H518        O519   0.962       .  S
O519       Ni527   1.909   1_545  S
O519       Ni521   1.912       .  S
O519       Ni526   1.906   1_545  S
O520       Ni521   1.982   1_565  S
Ni521       O525   1.933       .  S
Ni521       O523   1.935       .  S
O522       Ni527   1.990   1_545  S
C524        O525   1.274       .  A
C524       C1145   1.469       .  S
O529       Ni535   1.902       .  S
O529        C550   1.265       .  A
O530       Ni553   1.914       .  S
O530        C539   1.266       .  A
O531       Ni535   1.900       .  S
O531       Ni553   1.905   1_556  S
O531       Ni547   1.927   1_556  S
O531        H554   0.966       .  S
C532        O549   1.282       .  A
C532        O541   1.271       .  A
C532       C1278   1.482       .  S
O533       Ni552   1.898       .  S
O533        C539   1.266       .  A
O534       Ni552   1.906       .  S
O534        C536   1.269       .  A
Ni535       O538   1.924       .  S
Ni535       O540   1.911       .  S
C536        O546   1.286       .  A
C536       C1117   1.497       .  S
O537       Ni553   1.962   1_556  S
O537        C543   1.289       .  A
O538        C543   1.276       .  A
C539        C726   1.453       .  S
O540        C542   1.267       .  A
O541       Ni552   1.917       .  S
C542        O548   1.270       .  A
C542        C929   1.486       .  S
C543        C604   1.492       .  S
H544        O545   0.965       .  S
O545       Ni553   1.934       .  S
O545       Ni547   1.918       .  S
O545       Ni552   1.902       .  S
O546       Ni547   1.984       .  S
Ni547       O551   1.942   1_554  S
Ni547       O549   1.946       .  S
O548       Ni553   1.951   1_556  S
C550        O551   1.277       .  A
C555        N556   1.344       .  A
C555        N560   1.362       .  A
C555       C1419   1.421       .  S
N556        C557   1.343       .  A
C557        N558   1.352       .  A
C557       C1421   1.407       .  S
N558        C559   1.354       .  A
C559        N560   1.363       .  A
C559       C1423   1.433       .  S
C561        N562   1.363       .  A
C561        N566   1.362       .  A
C561       C1413   1.450       .  S
N562        C563   1.362   1_556  A
C563        N564   1.355   1_554  A
C563       C1415   1.440       .  S
N564        C565   1.354       .  A
C565        N566   1.361       .  A
C565       C1417   1.441       .  S
C567        N568   1.346       .  A
C567        N572   1.358       .  A
C567       C1411   1.419       .  S
N568        C569   1.346       .  A
C569        N570   1.353       .  A
C569       C1409   1.411       .  S
N570        C571   1.353       .  A
C571        N572   1.360       .  A
C571       C1407   1.426       .  S
C573        N574   1.364       .  A
C573        N578   1.362       .  A
C573       C1403   1.450       .  S
N574        C575   1.362       .  A
C575        N576   1.349       .  A
C575       C1405   1.433   1_556  S
N576        C577   1.349       .  A
C577        N578   1.360       .  A
C577       C1402   1.429       .  S
O579       Ni587   1.910       .  S
O579        C589   1.278       .  A
O580       Ni587   1.917       .  S
O580        C590   1.279       .  A
O581       Ni587   1.902       .  S
O581        C591   1.281       .  A
O582       Ni587   1.898       .  S
O582        C592   1.274       .  A
O583       Ni588   1.929       .  S
O583        C592   1.284       .  A
O584       Ni588   1.934       .  S
O584        C591   1.282       .  A
O585       Ni588   1.906       .  S
O585        C590   1.281       .  A
O586       Ni588   1.892       .  S
O586        C589   1.275       .  A
Ni587      Ni588   2.394       .  S
C589       C1410   1.412       .  S
C592       C1401   1.429       .  S
O593       Ni601   1.925       .  S
O593        C603   1.282       .  A
O594       Ni601   1.950       .  S
O594        C604   1.287       .  A
O595       Ni601   1.959       .  S
O595        C605   1.288       .  A
O596       Ni601   1.926       .  S
O596        C606   1.281       .  A
O597       Ni602   1.934       .  S
O597        C606   1.283       .  A
O598       Ni602   1.944       .  S
O598        C605   1.288       .  A
O599       Ni602   1.918       .  S
O599        C604   1.281       .  A
O600       Ni602   1.895       .  S
O600        C603   1.274       .  A
Ni601      Ni602   2.386       .  S
C603       C1408   1.424       .  S
C605        C784   1.515       .  S
C606       C1414   1.449       .  S
O607       Ni615   1.879       .  S
O607        C617   1.271       .  A
O608       Ni615   1.886       .  S
O608        C618   1.275       .  A
O609       Ni615   1.941       .  S
O609        C619   1.284       .  A
O610       Ni615   1.932       .  S
O610        C620   1.285       .  A
O611       Ni616   1.881       .  S
O611        C620   1.270       .  A
O612       Ni616   1.885       .  S
O612        C619   1.277       .  A
O613       Ni616   1.913       .  S
O613        C618   1.280       .  A
O614       Ni616   1.912       .  S
O614        C617   1.280       .  A
Ni615      Ni616   2.395       .  S
C617       C1422   1.406       .  S
C620       C1412   1.420       .  S
O621       Ni629   1.889       .  S
O621        C631   1.271       .  A
O622       Ni629   1.906       .  S
O622        C632   1.277       .  A
O623       Ni629   1.939       .  S
O623        C633   1.288       .  A
O624       Ni629   1.932       .  S
O624        C634   1.284       .  A
O625       Ni630   1.911       .  S
O625        C634   1.277       .  A
O626       Ni630   1.941       .  S
O626        C633   1.283       .  A
O627       Ni630   1.949       .  S
O627        C632   1.289       .  A
O628       Ni630   1.939       .  S
O628        C631   1.286       .  A
Ni629      Ni630   2.388       .  S
C631       C1406   1.430       .  S
C634       C1416   1.439       .  S
O635       Ni643   1.934       .  S
O635        C645   1.284       .  A
O636       Ni643   1.935       .  S
O636        C646   1.287       .  A
O637       Ni643   1.886       .  S
O637        C647   1.275       .  A
O638       Ni643   1.878       .  S
O638        C648   1.269       .  A
O639       Ni644   1.936       .  S
O639        C648   1.286       .  A
O640       Ni644   1.950       .  S
O640        C647   1.287       .  A
O641       Ni644   1.942       .  S
O641        C646   1.283       .  A
O642       Ni644   1.912       .  S
O642        C645   1.277       .  A
Ni643      Ni644   2.389       .  S
C645       C1418   1.440       .  S
C648       C1420   1.421       .  S
O649       Ni657   1.903       .  S
O649        C659   1.275       .  A
O650       Ni657   1.933       .  S
O650        C660   1.285       .  A
O651       Ni657   1.947       .  S
O651        C661   1.289       .  A
O652       Ni657   1.928       .  S
O652        C662   1.282       .  A
O653       Ni658   1.931       .  S
O653        C662   1.282       .  A
O654       Ni658   1.953       .  S
O654        C661   1.287       .  A
O655       Ni658   1.958       .  S
O655        C660   1.288       .  A
O656       Ni658   1.930       .  S
O656        C659   1.283       .  A
Ni657      Ni658   2.385       .  S
C659       C1424   1.432       .  S
C661       C1154   1.515       .  S
C662       C1404   1.450       .  S
C663        N664   1.343       .  A
C663        N668   1.365       .  A
C663       C1400   1.426       .  S
N664        C665   1.342       .  A
C665        N666   1.357       .  A
C665       C1395   1.414       .  S
N666        C667   1.359       .  A
C667        N668   1.366       .  A
C667       C1397   1.448       .  S
O669       Ni677   1.917       .  S
O669        C679   1.280       .  A
O670       Ni677   1.909       .  S
O670        C680   1.286       .  A
O671       Ni677   1.878       .  S
O671        C681   1.271       .  A
O672       Ni677   1.878       .  S
O672        C682   1.270       .  A
O673       Ni678   1.921       .  S
O673        C682   1.282       .  A
O674       Ni678   1.935       .  S
O674        C681   1.287       .  A
O675       Ni678   1.937       .  S
O675        C680   1.280       .  A
O676       Ni678   1.914       .  S
O676        C679   1.279       .  A
Ni677      Ni678   2.395       .  S
C679       C1394   1.431       .  S
C682       C1396   1.413       .  S
C683        N684   1.344   1_554  A
C683        N688   1.357       .  A
C683       C1388   1.409       .  S
N684        C685   1.344       .  A
C685        N686   1.354   1_556  A
C685       C1392   1.411       .  S
N686        C687   1.356       .  A
C687        N688   1.356       .  A
C687       C1389   1.427       .  S
C689        N690   1.346       .  A
C689        N694   1.354       .  A
C689       C1383   1.412       .  S
N690        C691   1.345       .  A
C691        N692   1.357       .  A
C691       C1385   1.421   1_554  S
N692        C693   1.359       .  A
C693        N694   1.356       .  A
C693       C1381   1.428       .  S
C695        N696   1.357       .  A
C695        N700   1.357       .  A
C695       C1393   1.431       .  S
N696        C697   1.356       .  A
C697        N698   1.349       .  A
C697       C1378   1.417       .  S
N698        C699   1.347       .  A
C699        N700   1.357       .  A
C699       C1379   1.420       .  S
O701       Ni709   1.896       .  S
O701        C711   1.274       .  A
O702       Ni709   1.916       .  S
O702        C712   1.282       .  A
O703       Ni709   1.924       .  S
O703        C713   1.283       .  A
O704       Ni709   1.916       .  S
O704        C714   1.280       .  A
O705       Ni710   1.909       .  S
O705        C714   1.278       .  A
O706       Ni710   1.915       .  S
O706        C713   1.280       .  A
O707       Ni710   1.927       .  S
O707        C712   1.282       .  A
O708       Ni710   1.916       .  S
O708        C711   1.281       .  A
Ni709      Ni710   2.395       .  S
C711       C1377   1.418       .  S
C714       C1382   1.427       .  S
O715       Ni723   1.922       .  S
O715        C725   1.282       .  A
O716       Ni723   1.923       .  S
O716        C726   1.282       .  A
O717       Ni723   1.926       .  S
O717        C727   1.281       .  A
O718       Ni723   1.910       .  S
O718        C728   1.279       .  A
O719       Ni724   1.883       .  S
O719        C728   1.273       .  A
O720       Ni724   1.879       .  S
O720        C727   1.276       .  A
O721       Ni724   1.880       .  S
O721        C726   1.276       .  A
O722       Ni724   1.886       .  S
O722        C725   1.273       .  A
Ni723      Ni724   2.398       .  S
C725       C1380   1.418       .  S
C728       C1387   1.409       .  S
O729       Ni737   1.931       .  S
O729        C739   1.285       .  A
O730       Ni737   1.934       .  S
O730        C740   1.285       .  A
O731       Ni737   1.899       .  S
O731        C741   1.276       .  A
O732       Ni737   1.882       .  S
O732        C742   1.271       .  A
O733       Ni738   1.915       .  S
O733        C742   1.281       .  A
O734       Ni738   1.915       .  S
O734        C741   1.282       .  A
O735       Ni738   1.883       .  S
O735        C740   1.275       .  A
O736       Ni738   1.881       .  S
O736        C739   1.270       .  A
Ni737      Ni738   2.395       .  S
C739       C1386   1.420       .  S
C740        C785   1.459       .  S
C742       C1391   1.411       .  S
O743       Ni751   1.905       .  S
O743        C753   1.277       .  A
O744       Ni751   1.921       .  S
O744        C754   1.283       .  A
O745       Ni751   1.937       .  S
O745        C755   1.286       .  A
O746       Ni751   1.926       .  S
O746        C756   1.281       .  A
O747       Ni752   1.932       .  S
O747        C756   1.283       .  A
O748       Ni752   1.962       .  S
O748        C755   1.289       .  A
O749       Ni752   1.945       .  S
O749        C754   1.286       .  A
O750       Ni752   1.921       .  S
O750        C753   1.280       .  A
Ni751      Ni752   2.387       .  S
C753       C1390   1.428       .  S
C756       C1398   1.448       .  S
O757       Ni765   1.875       .  S
O757        C767   1.268       .  A
O758       Ni765   1.880       .  S
O758        C768   1.271       .  A
O759       Ni765   1.918       .  S
O759        C769   1.285       .  A
O760       Ni765   1.918       .  S
O760        C770   1.282       .  A
O761       Ni766   1.885       .  S
O761        C770   1.271       .  A
O762       Ni766   1.913       .  S
O762        C769   1.277       .  A
O763       Ni766   1.946       .  S
O763        C768   1.289       .  A
O764       Ni766   1.942       .  S
O764        C767   1.288       .  A
Ni765      Ni766   2.393       .  S
C767       C1399   1.423       .  S
C770       C1384   1.414       .  S
O771       Ni777   1.896       .  S
O771        C792   1.264       .  A
O772       Ni795   1.942       .  S
O772        C781   1.274       .  A
O773       Ni777   1.891       .  S
O773       Ni795   1.919       .  S
O773       Ni789   1.912       .  S
O773        H796   0.967       .  S
C774        O791   1.280       .  A
C774        O783   1.274       .  A
C774       C1102   1.460       .  S
O775       Ni794   1.895       .  S
O775        C781   1.262       .  A
O776       Ni794   1.902       .  S
O776        C778   1.264       .  A
Ni777       O780   1.902       .  S
Ni777       O782   1.916       .  S
C778        O788   1.282       .  A
C778       C1008   1.497       .  S
O779       Ni795   1.928       .  S
O779        C785   1.279       .  A
O780        C785   1.274       .  A
O782        C784   1.269       .  A
O783       Ni794   1.908       .  S
C784        O790   1.285       .  A
H786        O787   0.966       .  S
O787       Ni795   1.916       .  S
O787       Ni789   1.919       .  S
O787       Ni794   1.895       .  S
O788       Ni789   1.982       .  S
Ni789       O793   1.944       .  S
Ni789       O791   1.927       .  S
O790       Ni795   1.994       .  S
C792        O793   1.274       .  A
C792        C887   1.473       .  S
O797       Ni803   1.903   1_645  S
O797        C818   1.265       .  A
O798       Ni821   1.947       .  S
O798        C807   1.275       .  A
O799       Ni803   1.898       .  S
O799       Ni821   1.917       .  S
O799       Ni815   1.931   1_465  S
O799        H822   0.968   1_565  S
C800        O817   1.290       .  A
C800        O809   1.274       .  A
C800       C1144   1.476       .  S
O801       Ni820   1.890       .  S
O801        C807   1.262       .  A
O802       Ni820   1.902   1_545  S
O802        C804   1.266       .  A
Ni803       O806   1.914       .  S
Ni803       O808   1.910   1_455  S
C804        O814   1.282       .  A
C804       C1216   1.498       .  S
O805       Ni821   1.952       .  S
O805        C811   1.288       .  A
O806        C811   1.274       .  A
O808        C810   1.269       .  A
O809       Ni820   1.916   1_645  S
C810        O816   1.281       .  A
C811       C1023   1.477       .  S
H812        O813   0.966       .  S
O813       Ni821   1.935   1_655  S
O813       Ni815   1.911   1_565  S
O813       Ni820   1.897   1_655  S
O814       Ni815   1.982   1_455  S
Ni815       O819   1.953       .  S
Ni815       O817   1.949       .  S
O816       Ni821   1.981   1_655  S
C818        O819   1.279       .  A
C818        C915   1.484       .  S
C823        N824   1.360   1_565  A
C823        N828   1.359   1_565  A
C823       C1375   1.443       .  S
N824        C825   1.361       .  A
C825        N826   1.359       .  A
C825       C1373   1.444       .  S
N826        C827   1.359       .  A
C827        N828   1.358       .  A
C827       C1371   1.443       .  S
C829        N830   1.364       .  A
C829        N834   1.361       .  A
C829       C1369   1.453       .  S
N830        C831   1.363   1_545  A
C831        N832   1.352   1_565  A
C831       C1367   1.442       .  S
N832        C833   1.353       .  A
C833        N834   1.361       .  A
C833       C1366   1.433       .  S
C835        N836   1.360       .  A
C835        N840   1.358       .  A
C835       C1359   1.440       .  S
N836        C837   1.359       .  A
C837        N838   1.354       .  A
C837       C1364   1.433       .  S
N838        C839   1.353       .  A
C839        N840   1.359       .  A
C839       C1361   1.434       .  S
O841       Ni849   1.930       .  S
O841        C851   1.284       .  A
O842       Ni849   1.954       .  S
O842        C852   1.288       .  A
O843       Ni849   1.952       .  S
O843        C853   1.287       .  A
O844       Ni849   1.909       .  S
O844        C854   1.277       .  A
O845       Ni850   1.929       .  S
O845        C854   1.282       .  A
O846       Ni850   1.946       .  S
O846        C853   1.288       .  A
O847       Ni850   1.922       .  S
O847        C852   1.283       .  A
O848       Ni850   1.902       .  S
O848        C851   1.275       .  A
Ni849      Ni850   2.386       .  S
C851       C1365   1.432       .  S
C854       C1362   1.433       .  S
O855       Ni863   1.931       .  S
O855        C865   1.283       .  A
O856       Ni863   1.952       .  S
O856        C866   1.287       .  A
O857       Ni863   1.964       .  S
O857        C867   1.290       .  A
O858       Ni863   1.928       .  S
O858        C868   1.282       .  A
O859       Ni864   1.923       .  S
O859        C868   1.280       .  A
O860       Ni864   1.939       .  S
O860        C867   1.286       .  A
O861       Ni864   1.927       .  S
O861        C866   1.284       .  A
O862       Ni864   1.911       .  S
O862        C865   1.278       .  A
Ni863      Ni864   2.385       .  S
C865       C1360   1.439       .  S
C868       C1372   1.443       .  S
C869        N870   1.355       .  A
C869        N874   1.356       .  A
C869       C1358   1.426       .  S
N870        C871   1.354       .  A
C871        N872   1.350       .  A
C871       C1355   1.421       .  S
N872        C873   1.351       .  A
C873        N874   1.355       .  A
C873       C1353   1.420       .  S
O875       Ni883   1.897       .  S
O875        C885   1.275       .  A
O876       Ni883   1.900       .  S
O876        C886   1.281       .  A
O877       Ni883   1.934       .  S
O877        C887   1.282       .  A
O878       Ni883   1.926       .  S
O878        C888   1.283       .  A
O879       Ni884   1.906       .  S
O879        C888   1.276       .  A
O880       Ni884   1.901       .  S
O880        C887   1.282       .  A
O881       Ni884   1.925       .  S
O881        C886   1.280       .  A
O882       Ni884   1.917       .  S
O882        C885   1.281       .  A
Ni883      Ni884   2.394       .  S
C885       C1354   1.421       .  S
C888       C1363   1.432       .  S
O889       Ni897   1.908       .  S
O889        C899   1.276       .  A
O890       Ni897   1.916       .  S
O890        C900   1.283       .  A
O891       Ni897   1.930       .  S
O891        C901   1.285       .  A
O892       Ni897   1.922       .  S
O892        C902   1.280       .  A
O893       Ni898   1.927       .  S
O893        C902   1.282       .  A
O894       Ni898   1.946       .  S
O894        C901   1.285       .  A
O895       Ni898   1.954       .  S
O895        C900   1.286       .  A
O896       Ni898   1.939       .  S
O896        C899   1.285       .  A
Ni897      Ni898   2.387       .  S
C899       C1368   1.441       .  S
C902       C1376   1.443       .  S
O903       Ni911   1.939       .  S
O903        C913   1.285       .  A
O904       Ni911   1.948       .  S
O904        C914   1.289       .  A
O905       Ni911   1.937       .  S
O905        C915   1.281       .  A
O906       Ni911   1.912       .  S
O906        C916   1.278       .  A
O907       Ni912   1.911       .  S
O907        C916   1.278       .  A
O908       Ni912   1.916       .  S
O908        C915   1.285       .  A
O909       Ni912   1.935       .  S
O909        C914   1.282       .  A
O910       Ni912   1.925       .  S
O910        C913   1.280       .  A
Ni911      Ni912   2.388       .  S
C913       C1370   1.452       .  S
C914       C1160   1.497       .  S
C916       C1357   1.426       .  S
O917       Ni925   1.915       .  S
O917        C927   1.279       .  A
O918       Ni925   1.935       .  S
O918        C928   1.282       .  A
O919       Ni925   1.942       .  S
O919        C929   1.285       .  A
O920       Ni925   1.930       .  S
O920        C930   1.283       .  A
O921       Ni926   1.918       .  S
O921        C930   1.279       .  A
O922       Ni926   1.921       .  S
O922        C929   1.282       .  A
O923       Ni926   1.912       .  S
O923        C928   1.283       .  A
O924       Ni926   1.899       .  S
O924        C927   1.276       .  A
Ni925      Ni926   2.391       .  S
C927       C1356   1.420       .  S
C930       C1374   1.442       .  S
C931        N932   1.356       .  A
C931        N936   1.357       .  A
C931       C1352   1.434       .  S
N932        C933   1.356       .  A
C933        N934   1.364       .  A
C933       C1347   1.444       .  S
N934        C935   1.364   1_455  A
C935        N936   1.357   1_655  A
C935       C1350   1.447       .  S
O937       Ni945   1.941       .  S
O937        C947   1.287       .  A
O938       Ni945   1.950       .  S
O938        C948   1.291       .  A
O939       Ni945   1.932       .  S
O939        C949   1.279       .  A
O940       Ni945   1.907       .  S
O940        C950   1.276       .  A
O941       Ni946   1.941       .  S
O941        C950   1.286       .  A
O942       Ni946   1.948       .  S
O942        C949   1.291       .  A
O943       Ni946   1.937       .  S
O943        C948   1.281       .  A
O944       Ni946   1.909       .  S
O944        C947   1.276       .  A
Ni945      Ni946   2.385       .  S
C947       C1346   1.444       .  S
C950       C1348   1.443       .  S
C951        N952   1.364       .  A
C951        N956   1.352       .  A
C951       C1339   1.435       .  S
N952        C953   1.363       .  A
C953        N954   1.353       .  A
C953       C1341   1.437       .  S
N954        C955   1.352       .  A
C955        N956   1.351       .  A
C955       C1343   1.421       .  S
C957        N958   1.353       .  A
C957        N962   1.366       .  A
C957       C1345   1.444       .  S
N958        C959   1.352       .  A
C959        N960   1.361       .  A
C959       C1338   1.437       .  S
N960        C961   1.362       .  A
C961        N962   1.368       .  A
C961       C1336   1.458       .  S
O963       Ni971   1.920       .  S
O963        C973   1.278       .  A
O964       Ni971   1.958       .  S
O964        C974   1.287       .  A
O965       Ni971   1.956       .  S
O965        C975   1.292       .  A
O966       Ni971   1.934       .  S
O966        C976   1.285       .  A
O967       Ni972   1.900       .  S
O967        C976   1.274       .  A
O968       Ni972   1.939       .  S
O968        C975   1.282       .  A
O969       Ni972   1.971       .  S
O969        C974   1.295       .  A
O970       Ni972   1.953       .  S
O970        C973   1.289       .  A
Ni971      Ni972   2.382       .  S
C973       C1335   1.457       .  S
C976       C1340   1.433       .  S
C977        N978   1.358   1_455  A
C977        N982   1.341       .  A
C977       C1334   1.411       .  S
N978        C979   1.359       .  A
C979        N980   1.352       .  A
C979       C1330   1.422       .  S
N980        C981   1.350   1_655  A
C981        N982   1.341       .  A
C981       C1332   1.399       .  S
O983       Ni991   1.873       .  S
O983        C993   1.269       .  A
O984       Ni991   1.893       .  S
O984        C994   1.276       .  A
O985       Ni991   1.936       .  S
O985        C995   1.285       .  A
O986       Ni991   1.935       .  S
O986        C996   1.285       .  A
O987       Ni992   1.901       .  S
O987        C996   1.275       .  A
O988       Ni992   1.903       .  S
O988        C995   1.279       .  A
O989       Ni992   1.919       .  S
O989        C994   1.281       .  A
O990       Ni992   1.909       .  S
O990        C993   1.280       .  A
Ni991      Ni992   2.393       .  S
C993       C1331   1.402       .  S
C995       C1150   1.473       .  S
C996       C1337   1.436       .  S
O997      Ni1005   1.921       .  S
O997       C1007   1.279       .  A
O998      Ni1005   1.933       .  S
O998       C1008   1.281       .  A
O999      Ni1005   1.917       .  S
O999       C1009   1.284       .  A
O1000     Ni1005   1.916       .  S
O1000      C1010   1.281       .  A
O1001     Ni1006   1.900       .  S
O1001      C1010   1.275       .  A
O1002     Ni1006   1.921       .  S
O1002      C1009   1.280       .  A
O1003     Ni1006   1.952       .  S
O1003      C1008   1.291       .  A
O1004     Ni1006   1.934       .  S
O1004      C1007   1.284       .  A
Ni1005    Ni1006   2.390       .  S
C1007      C1349   1.446       .  S
C1010      C1329   1.422       .  S
O1011     Ni1019   1.919       .  S
O1011      C1021   1.280       .  A
O1012     Ni1019   1.932       .  S
O1012      C1022   1.282       .  A
O1013     Ni1019   1.919       .  S
O1013      C1023   1.283       .  A
O1014     Ni1019   1.908       .  S
O1014      C1024   1.278       .  A
O1015     Ni1020   1.907       .  S
O1015      C1024   1.277       .  A
O1016     Ni1020   1.927       .  S
O1016      C1023   1.282       .  A
O1017     Ni1020   1.934       .  S
O1017      C1022   1.286       .  A
O1018     Ni1020   1.915       .  S
O1018      C1021   1.279       .  A
Ni1019    Ni1020   2.392       .  S
C1021      C1351   1.433       .  S
C1024      C1344   1.420       .  S
O1025     Ni1033   1.935       .  S
O1025      C1035   1.285       .  A
O1026     Ni1033   1.947       .  S
O1026      C1036   1.286       .  A
O1027     Ni1033   1.891       .  S
O1027      C1037   1.278       .  A
O1028     Ni1033   1.869       .  S
O1028      C1038   1.268       .  A
O1029     Ni1034   1.926       .  S
O1029      C1038   1.283       .  A
O1030     Ni1034   1.939       .  S
O1030      C1037   1.284       .  A
O1031     Ni1034   1.913       .  S
O1031      C1036   1.282       .  A
O1032     Ni1034   1.907       .  S
O1032      C1035   1.276       .  A
Ni1033    Ni1034   2.390       .  S
C1035      C1342   1.438       .  S
C1038      C1333   1.409       .  S
C1039      N1040   1.363       .  A
C1039      N1044   1.360       .  A
C1039      C1326   1.444       .  S
N1040      C1041   1.361       .  A
C1041      N1042   1.350       .  A
C1041      C1328   1.435       .  S
N1042      C1043   1.351       .  A
C1043      N1044   1.359       .  A
C1043      C1324   1.429       .  S
O1045     Ni1053   1.920       .  S
O1045      C1055   1.280       .  A
O1046     Ni1053   1.942       .  S
O1046      C1056   1.289       .  A
O1047     Ni1053   1.950       .  S
O1047      C1057   1.286       .  A
O1048     Ni1053   1.918       .  S
O1048      C1058   1.279       .  A
O1049     Ni1054   1.931       .  S
O1049      C1058   1.283       .  A
O1050     Ni1054   1.953       .  S
O1050      C1057   1.290       .  A
O1051     Ni1054   1.950       .  S
O1051      C1056   1.285       .  A
O1052     Ni1054   1.919       .  S
O1052      C1055   1.279       .  A
Ni1053    Ni1054   2.386       .  S
C1055      C1322   1.436       .  S
C1058      C1325   1.442       .  S
C1059      N1060   1.360       .  A
C1059      N1064   1.358       .  A
C1059      C1321   1.437       .  S
N1060      C1061   1.359       .  A
C1061      N1062   1.352       .  A
C1061      C1318   1.433       .  S
N1062      C1063   1.353       .  A
C1063      N1064   1.357       .  A
C1063      C1319   1.429       .  S
C1065      N1066   1.363       .  A
C1065      N1070   1.354       .  A
C1065      C1313   1.441       .  S
N1066      C1067   1.364       .  A
C1067      N1068   1.360       .  A
C1067      C1315   1.450   1_655  S
N1068      C1069   1.360       .  A
C1069      N1070   1.353       .  A
C1069      C1312   1.435       .  S
C1071      N1072   1.354   1_655  A
C1071      N1076   1.351       .  A
C1071      C1308   1.415       .  S
N1072      C1073   1.355       .  A
C1073      N1074   1.354   1_455  A
C1073      C1309   1.423       .  S
N1074      C1075   1.354       .  A
C1075      N1076   1.349       .  A
C1075      C1306   1.419       .  S
O1077     Ni1085   1.905       .  S
O1077      C1087   1.277       .  A
O1078     Ni1085   1.925       .  S
O1078      C1088   1.282       .  A
O1079     Ni1085   1.939       .  S
O1079      C1089   1.286       .  A
O1080     Ni1085   1.922       .  S
O1080      C1090   1.280       .  A
O1081     Ni1086   1.938       .  S
O1081      C1090   1.284       .  A
O1082     Ni1086   1.948       .  S
O1082      C1089   1.286       .  A
O1083     Ni1086   1.930       .  S
O1083      C1088   1.284       .  A
O1084     Ni1086   1.914       .  S
O1084      C1087   1.279       .  A
Ni1085    Ni1086   2.389       .  S
C1087      C1310   1.423       .  S
C1090      C1316   1.449       .  S
O1091     Ni1099   1.895       .  S
O1091      C1101   1.275       .  A
O1092     Ni1099   1.903       .  S
O1092      C1102   1.279       .  A
O1093     Ni1099   1.935       .  S
O1093      C1103   1.282       .  A
O1094     Ni1099   1.929       .  S
O1094      C1104   1.283       .  A
O1095     Ni1100   1.903       .  S
O1095      C1104   1.276       .  A
O1096     Ni1100   1.909       .  S
O1096      C1103   1.283       .  A
O1097     Ni1100   1.923       .  S
O1097      C1102   1.281       .  A
O1098     Ni1100   1.916       .  S
O1098      C1101   1.279       .  A
Ni1099    Ni1100   2.393       .  S
C1101      C1305   1.418       .  S
C1103      C1168   1.477       .  S
C1104      C1317   1.432       .  S
O1105     Ni1113   1.899       .  S
O1105      C1115   1.274       .  A
O1106     Ni1113   1.912       .  S
O1106      C1116   1.279       .  A
O1107     Ni1113   1.938       .  S
O1107      C1117   1.288       .  A
O1108     Ni1113   1.932       .  S
O1108      C1118   1.284       .  A
O1109     Ni1114   1.914       .  S
O1109      C1118   1.277       .  A
O1110     Ni1114   1.945       .  S
O1110      C1117   1.284       .  A
O1111     Ni1114   1.954       .  S
O1111      C1116   1.289       .  A
O1112     Ni1114   1.940       .  S
O1112      C1115   1.286       .  A
Ni1113    Ni1114   2.387       .  S
C1115      C1327   1.435       .  S
C1118      C1314   1.441       .  S
O1119     Ni1127   1.930       .  S
O1119      C1129   1.283       .  A
O1120     Ni1127   1.940       .  S
O1120      C1130   1.289       .  A
O1121     Ni1127   1.928       .  S
O1121      C1131   1.279       .  A
O1122     Ni1127   1.908       .  S
O1122      C1132   1.277       .  A
O1123     Ni1128   1.919       .  S
O1123      C1132   1.281       .  A
O1124     Ni1128   1.914       .  S
O1124      C1131   1.285       .  A
O1125     Ni1128   1.919       .  S
O1125      C1130   1.277       .  A
O1126     Ni1128   1.907       .  S
O1126      C1129   1.276       .  A
Ni1127    Ni1128   2.391       .  S
C1129      C1311   1.434       .  S
C1132      C1320   1.428       .  S
O1133     Ni1141   1.927       .  S
O1133      C1143   1.283       .  A
O1134     Ni1141   1.931       .  S
O1134      C1144   1.287       .  A
O1135     Ni1141   1.915       .  S
O1135      C1145   1.277       .  A
O1136     Ni1141   1.901       .  S
O1136      C1146   1.275       .  A
O1137     Ni1142   1.904       .  S
O1137      C1146   1.278       .  A
O1138     Ni1142   1.919       .  S
O1138      C1145   1.285       .  A
O1139     Ni1142   1.911       .  S
O1139      C1144   1.278       .  A
O1140     Ni1142   1.902       .  S
O1140      C1143   1.275       .  A
Ni1141    Ni1142   2.395       .  S
C1143      C1323   1.430       .  S
C1146      C1307   1.416       .  S
O1147     Ni1153   1.902       .  S
O1147      C1168   1.266       .  A
O1148     Ni1171   1.934   1_455  S
O1148      C1157   1.273       .  A
O1149     Ni1153   1.904       .  S
O1149     Ni1171   1.924       .  S
O1149     Ni1165   1.924       .  S
O1149      H1172   0.968       .  S
C1150      O1167   1.281       .  A
C1150      O1159   1.275       .  A
O1151     Ni1170   1.915       .  S
O1151      C1157   1.270       .  A
O1152     Ni1170   1.924       .  S
O1152      C1154   1.272       .  A
Ni1153     O1156   1.909       .  S
Ni1153     O1158   1.912       .  S
C1154      O1164   1.284       .  A
O1155     Ni1171   1.934       .  S
O1155      C1161   1.278       .  A
O1156      C1161   1.271       .  A
C1157      C1250   1.477       .  S
O1158      C1160   1.269       .  A
O1159     Ni1170   1.917       .  S
C1160      O1166   1.281       .  A
H1162      O1163   0.965       .  S
O1163     Ni1171   1.910   1_455  S
O1163     Ni1165   1.918   1_455  S
O1163     Ni1170   1.897       .  S
O1164     Ni1165   1.989   1_455  S
Ni1165     O1169   1.943       .  S
Ni1165     O1167   1.935   1_655  S
O1166     Ni1171   1.977       .  S
C1168      O1169   1.276       .  A
C1173      N1174   1.354       .  A
C1173      N1178   1.344   1_455  A
C1173      C1300   1.410       .  S
N1174      C1175   1.356   1_554  A
C1175      N1176   1.354   1_456  A
C1175      C1301   1.423       .  S
N1176      C1177   1.354       .  A
C1177      N1178   1.344       .  A
C1177      C1304   1.408       .  S
O1179     Ni1187   1.920       .  S
O1179      C1189   1.282       .  A
O1180     Ni1187   1.937       .  S
O1180      C1190   1.282       .  A
O1181     Ni1187   1.936       .  S
O1181      C1191   1.282       .  A
O1182     Ni1187   1.931       .  S
O1182      C1192   1.283       .  A
O1183     Ni1188   1.908       .  S
O1183      C1192   1.277       .  A
O1184     Ni1188   1.901       .  S
O1184      C1191   1.281       .  A
O1185     Ni1188   1.873       .  S
O1185      C1190   1.276       .  A
O1186     Ni1188   1.877       .  S
O1186      C1189   1.269       .  A
Ni1187    Ni1188   2.395       .  S
C1189      C1299   1.410       .  S
C1192      C1298   1.437       .  S
C1193      N1194   1.358   1_455  A
C1193      N1198   1.348   1_545  A
C1193      C1291   1.420       .  S
N1194      C1195   1.359       .  A
C1195      N1196   1.356   1_645  A
C1195      C1293   1.433       .  S
N1196      C1197   1.356       .  A
C1197      N1198   1.346       .  A
C1197      C1296   1.418       .  S
C1199      N1200   1.355       .  A
C1199      N1204   1.370       .  A
C1199      C1287   1.453       .  S
N1200      C1201   1.354       .  A
C1201      N1202   1.358       .  A
C1201      C1297   1.437       .  S
N1202      C1203   1.359       .  A
C1203      N1204   1.370       .  A
C1203      C1289   1.459       .  S
O1205     Ni1213   1.948       .  S
O1205      C1215   1.288       .  A
O1206     Ni1213   1.953       .  S
O1206      C1216   1.287       .  A
O1207     Ni1213   1.898       .  S
O1207      C1217   1.280       .  A
O1208     Ni1213   1.887       .  S
O1208      C1218   1.271       .  A
O1209     Ni1214   1.928       .  S
O1209      C1218   1.284       .  A
O1210     Ni1214   1.947       .  S
O1210      C1217   1.284       .  A
O1211     Ni1214   1.929       .  S
O1211      C1216   1.285       .  A
O1212     Ni1214   1.917       .  S
O1212      C1215   1.278       .  A
Ni1213    Ni1214   2.388       .  S
C1215      C1288   1.453       .  S
C1218      C1292   1.421       .  S
C1219      N1220   1.355   1_565  A
C1219      N1224   1.357   1_565  A
C1219      C1283   1.430       .  S
N1220      C1221   1.354       .  A
C1221      N1222   1.359       .  A
C1221      C1286   1.435   1_554  S
N1222      C1223   1.359       .  A
C1223      N1224   1.357       .  A
C1223      C1281   1.439       .  S
O1225     Ni1233   1.917       .  S
O1225      C1235   1.279       .  A
O1226     Ni1233   1.949       .  S
O1226      C1236   1.286       .  A
O1227     Ni1233   1.975       .  S
O1227      C1237   1.292       .  A
O1228     Ni1233   1.947       .  S
O1228      C1238   1.287       .  A
O1229     Ni1234   1.929       .  S
O1229      C1238   1.280       .  A
O1230     Ni1234   1.960       .  S
O1230      C1237   1.290       .  A
O1231     Ni1234   1.951       .  S
O1231      C1236   1.289       .  A
O1232     Ni1234   1.924       .  S
O1232      C1235   1.281       .  A
Ni1233    Ni1234   2.382       .  S
C1235      C1282   1.438       .  S
C1238      C1290   1.459       .  S
O1239     Ni1247   1.931       .  S
O1239      C1249   1.283       .  A
O1240     Ni1247   1.942       .  S
O1240      C1250   1.285       .  A
O1241     Ni1247   1.933       .  S
O1241      C1251   1.282       .  A
O1242     Ni1247   1.917       .  S
O1242      C1252   1.280       .  A
O1243     Ni1248   1.899       .  S
O1243      C1252   1.276       .  A
O1244     Ni1248   1.899       .  S
O1244      C1251   1.280       .  A
O1245     Ni1248   1.901       .  S
O1245      C1250   1.280       .  A
O1246     Ni1248   1.902       .  S
O1246      C1249   1.276       .  A
Ni1247    Ni1248   2.393       .  S
C1249      C1285   1.433       .  S
C1252      C1302   1.422       .  S
O1253     Ni1261   1.889       .  S
O1253      C1263   1.273       .  A
O1254     Ni1261   1.893       .  S
O1254      C1264   1.276       .  A
O1255     Ni1261   1.907       .  S
O1255      C1265   1.283       .  A
O1256     Ni1261   1.910       .  S
O1256      C1266   1.279       .  A
O1257     Ni1262   1.918       .  S
O1257      C1266   1.280       .  A
O1258     Ni1262   1.942       .  S
O1258      C1265   1.283       .  A
O1259     Ni1262   1.933       .  S
O1259      C1264   1.285       .  A
O1260     Ni1262   1.919       .  S
O1260      C1263   1.281       .  A
Ni1261    Ni1262   2.394       .  S
C1263      C1295   1.416       .  S
C1266      C1284   1.429       .  S
O1267     Ni1275   1.906       .  S
O1267      C1277   1.277       .  A
O1268     Ni1275   1.918       .  S
O1268      C1278   1.283       .  A
O1269     Ni1275   1.922       .  S
O1269      C1279   1.281       .  A
O1270     Ni1275   1.911       .  S
O1270      C1280   1.279       .  A
O1271     Ni1276   1.885       .  S
O1271      C1280   1.273       .  A
O1272     Ni1276   1.908       .  S
O1272      C1279   1.281       .  A
O1273     Ni1276   1.933       .  S
O1273      C1278   1.283       .  A
O1274     Ni1276   1.925       .  S
O1274      C1277   1.282       .  A
Ni1275    Ni1276   2.392       .  S
C1277      C1294   1.432       .  S
C1280      C1303   1.409       .  S
C1281      C1282   1.208       .  T
C1283      C1284   1.203       .  T
C1285      C1286   1.205       .  T
C1287      C1288   1.217       .  T
C1289      C1290   1.220       .  T
C1291      C1292   1.197       .  T
C1293      C1294   1.204       .  T
C1295      C1296   1.195       .  T
C1297      C1298   1.207       .  T
C1299      C1300   1.192       .  T
C1301      C1302   1.198       .  T
C1303      C1304   1.191       .  T
C1305      C1306   1.196       .  T
C1307      C1308   1.194       .  T
C1309      C1310   1.199       .  T
C1311      C1312   1.206       .  T
C1313      C1314   1.209       .  T
C1315      C1316   1.214       .  T
C1317      C1318   1.204       .  T
C1319      C1320   1.202       .  T
C1321      C1322   1.206       .  T
C1323      C1324   1.203       .  T
C1325      C1326   1.210       .  T
C1327      C1328   1.206       .  T
C1329      C1330   1.198       .  T
C1331      C1332   1.187       .  T
C1333      C1334   1.193       .  T
C1335      C1336   1.219       .  T
C1337      C1338   1.207       .  T
C1339      C1340   1.205       .  T
C1341      C1342   1.207       .  T
C1343      C1344   1.197       .  T
C1345      C1346   1.211       .  T
C1347      C1348   1.211       .  T
C1349      C1350   1.213       .  T
C1351      C1352   1.205       .  T
C1353      C1354   1.197       .  T
C1355      C1356   1.197       .  T
C1357      C1358   1.200       .  T
C1359      C1360   1.208       .  T
C1361      C1362   1.205       .  T
C1363      C1364   1.204       .  T
C1365      C1366   1.205       .  T
C1367      C1368   1.210       .  T
C1369      C1370   1.216       .  T
C1371      C1372   1.210       .  T
C1373      C1374   1.210       .  T
C1375      C1376   1.210       .  T
C1377      C1378   1.195       .  T
C1379      C1380   1.197       .  T
C1381      C1382   1.201       .  T
C1383      C1384   1.193       .  T
C1385      C1386   1.198       .  T
C1387      C1388   1.191       .  T
C1389      C1390   1.201       .  T
C1391      C1392   1.192       .  T
C1393      C1394   1.203       .  T
C1395      C1396   1.194       .  T
C1397      C1398   1.214       .  T
C1399      C1400   1.201       .  T
C1401      C1402   1.203       .  T
C1403      C1404   1.214       .  T
C1405      C1406   1.204       .  T
C1407      C1408   1.200       .  T
C1409      C1410   1.192       .  T
C1411      C1412   1.197       .  T
C1413      C1414   1.214       .  T
C1415      C1416   1.208       .  T
C1417      C1418   1.209       .  T
C1419      C1420   1.199       .  T
C1421      C1422   1.189       .  T
C1423      C1424   1.205       .  T
C1425      C1426   1.197       .  T
C1427      C1428   1.190       .  T
C1429      C1430   1.193       .  T
C1431      C1432   1.197       .  T
C1433      C1434   1.186       .  T
C1435      C1436   1.197       .  T
C1437      C1438   1.193       .  T
C1439      C1440   1.194       .  T
C1441      C1442   1.192       .  T
C1443      C1444   1.196       .  T
C1445      C1446   1.190       .  T
C1447      C1448   1.194       .  T
C1449      C1450   1.201       .  T
C1451      C1452   1.201       .  T
C1453      C1454   1.199       .  T
C1455      C1456   1.202       .  T
C1457      C1458   1.202       .  T
C1459      C1460   1.207       .  T
C1461      C1462   1.205       .  T
C1463      C1464   1.217       .  T
C1465      C1466   1.214       .  T
C1467      C1468   1.206       .  T
C1469      C1470   1.218       .  T
C1471      C1472   1.216       .  T
