geometry optimzed in LAMMPS
_audit_creation_date              2020-11-30 
_audit_creation_method            'lammps2cif' 
_symmetry_space_group_name_H-M    'P1' 
_symmetry_Int_Tables_number       1 
_symmetry_cell_setting            triclinic 
loop_ 
_symmetry_equiv_pos_as_xyz 
  x,y,z 
_cell_length_a                    71.43638153092296 
_cell_length_b                    71.54254654900993 
_cell_length_c                    71.51060126462265 
_cell_angle_alpha                 90.20070237831516 
_cell_angle_beta                  90.15620996849566 
_cell_angle_gamma                 89.75353824623011 
loop_ 
_atom_site_label 
_atom_site_type_symbol 
_atom_site_fract_x 
_atom_site_fract_y 
_atom_site_fract_z 
_atom_site_charge 
C1          C  0.76253129  0.24918910  0.73504662     0.03510
C2          C  0.76221355  0.23459320  0.74805464    -0.12640
C3          C  0.74976147  0.23500228  0.76325410     0.01010
C4          C  0.73744303  0.25030068  0.76491467    -0.11170
C5          C  0.73637929  0.26393992  0.75096128     0.03500
C6          C  0.74922323  0.26355092  0.73621301    -0.10590
H7          H  0.77174129  0.22295015  0.74612929     0.09090
H8          H  0.72858729  0.25183742  0.77706636     0.06620
H9          H  0.74893534  0.27444453  0.72571936     0.06470
C10         C  0.65952259  0.34329264  0.76695177     0.03510
C11         C  0.67259780  0.32871445  0.76767057    -0.12640
C12         C  0.67876208  0.32020421  0.75127502     0.01010
C13         C  0.67154589  0.32582889  0.73405559    -0.11170
C14         C  0.65932694  0.34124743  0.73269357     0.03500
C15         C  0.65323057  0.34993907  0.74946789    -0.10590
H16         H  0.67792958  0.32392585  0.78104632     0.09090
H17         H  0.67562419  0.31799581  0.72175878     0.06620
H18         H  0.64356024  0.36161932  0.74906008     0.06470
C19         C  0.73278559  0.15565028  0.84008805     0.03510
C20         C  0.73438097  0.16699903  0.82416254    -0.12640
C21         C  0.75075490  0.17708420  0.82038408     0.01010
C22         C  0.76651040  0.17388430  0.83168113    -0.11170
C23         C  0.76611643  0.16053037  0.84589601     0.03500
C24         C  0.74909199  0.15203934  0.85073262    -0.10590
H25         H  0.72253209  0.16824371  0.81479621     0.09090
H26         H  0.77937658  0.18141755  0.82943730     0.06620
H27         H  0.74876963  0.14280194  0.86265544     0.06470
C28         C  0.84174624  0.26749851  0.65954111     0.03510
C29         C  0.82725909  0.26728062  0.67274946    -0.12640
C30         C  0.81931115  0.25043870  0.67834612     0.01010
C31         C  0.82551251  0.23360013  0.67063050    -0.11170
C32         C  0.83956098  0.23334624  0.65695290     0.03500
C33         C  0.84762845  0.25044471  0.65139477    -0.10590
H34         H  0.82195717  0.28023499  0.67861415     0.09090
H35         H  0.81941947  0.22063843  0.67546244     0.06620
H36         H  0.85838416  0.25052944  0.64076739     0.06470
In37       In  0.87477369  0.12641483  0.87543618     1.36870
C38         C  0.88307301  0.11552023  0.84099654     0.77960
O39         O  0.84558129  0.12146370  0.86658818    -0.60490
O40         O  0.85319111  0.14955816  0.87328240    -0.51400
C41         C  0.86681414  0.11379941  0.90908172     0.70630
O42         O  0.86786850  0.10297503  0.89502919    -0.46250
C43         C  0.90917498  0.13717687  0.88321856     0.75330
O44         O  0.88021453  0.10393490  0.85410239    -0.58110
O45         O  0.89610441  0.14886565  0.88001929    -0.48210
O46         O  0.88155219  0.13250193  0.84574392    -0.54550
C47         C  0.84055398  0.13834606  0.86783030     0.85510
O48         O  0.87020014  0.13077939  0.90589365    -0.56440
O49         O  0.90438245  0.12021504  0.88220930    -0.59730
C50         C  0.73482003  0.00124485  0.98617276     0.03510
C51         C  0.73447382  0.98767161  0.00013885    -0.12640
C52         C  0.74900998  0.98654294  0.01332485     0.01010
C53         C  0.76373667  0.99949176  0.01244052    -0.11170
C54         C  0.76364204  0.01369627  0.99895782     0.03500
C55         C  0.74930762  0.01423393  0.98557681    -0.10590
H56         H  0.72289113  0.97795230  0.00059408     0.09090
H57         H  0.77525083  0.99864944  0.02227666     0.06620
H58         H  0.74945256  0.02466481  0.97461909     0.06470
C59         C  0.84157981  0.09038077  0.98216750     0.03510
C60         C  0.84761348  0.09832735  0.99933345    -0.12640
C61         C  0.84040141  0.09171929  0.01649798     0.01010
C62         C  0.82637029  0.07807271  0.01614192    -0.11170
C63         C  0.82105540  0.06966710  0.99940870     0.03500
C64         C  0.82905238  0.07531791  0.98265818    -0.10590
H65         H  0.85782574  0.10946294  0.99937263     0.09090
H66         H  0.81965798  0.07373213  0.02897401     0.06620
H67         H  0.82517637  0.06803237  0.96994022     0.06470
C68         C  0.65801801  0.98322478  0.90774003     0.03510
C69         C  0.67233765  0.98369771  0.92120271    -0.12640
C70         C  0.67801265  0.00051378  0.92928980     0.01010
C71         C  0.66982055  0.01721454  0.92342989    -0.11170
C72         C  0.65707775  0.01758820  0.90845690     0.03500
C73         C  0.65077636  0.00037263  0.90092100    -0.10590
H74         H  0.67897977  0.97084815  0.92570617     0.09090
H75         H  0.67384906  0.03007098  0.93033793     0.06620
H76         H  0.64036192  0.00030683  0.88990072     0.06470
C77         C  0.73223706  0.91136573  0.09321936     0.03510
C78         C  0.73186468  0.92323952  0.07765234    -0.12640
C79         C  0.74843178  0.92854658  0.06898223     0.01010
C80         C  0.76550487  0.92140165  0.07517141    -0.11170
C81         C  0.76653692  0.90988140  0.09098933     0.03500
C82         C  0.74967475  0.90465925  0.09987425    -0.10590
H83         H  0.71868239  0.92850747  0.07226077     0.09090
H84         H  0.77802665  0.92507502  0.06756081     0.06620
H85         H  0.75008452  0.89578431  0.11210465     0.06470
In86       In  0.87459045  0.12598102  0.12378660     1.36870
C87         C  0.86281720  0.11740693  0.08988630     0.77960
O88         O  0.86880716  0.15543177  0.11647152    -0.60490
O89         O  0.89738015  0.14706600  0.11953011    -0.51400
C90         C  0.86337494  0.13473289  0.15785312     0.70630
O91         O  0.85191986  0.13172138  0.14456192    -0.46250
C92         C  0.88543237  0.09187488  0.13277185     0.75330
O93         O  0.85144725  0.12058136  0.10313557    -0.58110
O94         O  0.89701337  0.10401017  0.12708495    -0.48210
O95         O  0.87993526  0.11881143  0.09402982    -0.54550
C96         C  0.88581842  0.16013607  0.11592690     0.85510
O97         O  0.88046510  0.13327341  0.15344325    -0.56440
O98         O  0.86861402  0.09729806  0.13362786    -0.59730
In99       In  0.87496745  0.62701619  0.12503359     1.36870
C100        C  0.88658160  0.63488224  0.09089898     0.77960
O101        O  0.88000665  0.59714510  0.11845827    -0.60490
O102        O  0.85167438  0.60637615  0.12055339    -0.51400
C103        C  0.88726429  0.61884581  0.15882739     0.70630
O104        O  0.89813422  0.61942565  0.14484905    -0.46250
C105        C  0.86349036  0.66132537  0.13262537     0.75330
O106        O  0.89788633  0.63283732  0.10447707    -0.58110
O107        O  0.85207349  0.64804136  0.12974716    -0.48210
O108        O  0.86954334  0.63273595  0.09502286    -0.54550
C109        C  0.86289992  0.59290693  0.11745902     0.85510
O110        O  0.87037535  0.62293994  0.15552491    -0.56440
O111        O  0.88056942  0.65679105  0.13147182    -0.59730
In112      In  0.62439499  0.12521381  0.87391399     1.36870
C113        C  0.58989464  0.11714966  0.86373812     0.77960
O114        O  0.62822777  0.09480249  0.86844442    -0.60490
O115        O  0.63183007  0.10488611  0.89650816    -0.51400
C116        C  0.65822811  0.13193297  0.86102347     0.70630
O117        O  0.64404932  0.13141121  0.85030071    -0.46250
C118        C  0.61691506  0.15980811  0.88527743     0.75330
O119        O  0.60277356  0.11989087  0.85184270    -0.58110
O120        O  0.61952044  0.14651015  0.89674454    -0.48210
O121        O  0.59486789  0.11882439  0.88063820    -0.54550
C122        C  0.63221885  0.09110396  0.88526129     0.85510
O123        O  0.65503534  0.12857848  0.87802440    -0.56440
O124        O  0.61848173  0.15519758  0.86830547    -0.59730
C125        C  0.23263796  0.15872402  0.34043786     0.03510
C126        C  0.23284697  0.17410549  0.32828825    -0.12640
C127        C  0.24970423  0.18140147  0.32162916     0.01010
C128        C  0.26662167  0.17366532  0.32780193    -0.11170
C129        C  0.26688843  0.15867735  0.34035643     0.03500
C130        C  0.24984013  0.15111520  0.34657009    -0.10590
H131        H  0.21976306  0.18045129  0.32389769     0.09090
H132        H  0.27971453  0.17918443  0.32265426     0.06620
H133        H  0.25006313  0.13906561  0.35567568     0.06470
C134        C  0.15904623  0.34354623  0.26616746     0.03510
C135        C  0.17198272  0.32871078  0.26625190    -0.12640
C136        C  0.17787973  0.32053460  0.24954802     0.01010
C137        C  0.17072924  0.32681566  0.23256117    -0.11170
C138        C  0.15827787  0.34200381  0.23190306     0.03500
C139        C  0.15225482  0.35024894  0.24884208    -0.10590
H140        H  0.17752003  0.32343335  0.27934774     0.09090
H141        H  0.17514602  0.31992817  0.21978853     0.06620
H142        H  0.14278523  0.36209909  0.24849764     0.06470
C143        C  0.34122538  0.26895552  0.15888409     0.03510
C144        C  0.32861793  0.26802664  0.17393866    -0.12640
C145        C  0.32103798  0.25101266  0.17954204     0.01010
C146        C  0.32653064  0.23445898  0.17076507    -0.11170
C147        C  0.33955609  0.23483081  0.15621014     0.03500
C148        C  0.34669535  0.25207382  0.15004757    -0.10590
H149        H  0.32446697  0.28057789  0.18138934     0.09090
H150        H  0.32078995  0.22125386  0.17538470     0.06620
H151        H  0.35613012  0.25219328  0.13824410     0.06470
C152        C  0.26447181  0.25126140  0.23676914     0.03510
C153        C  0.25014484  0.26479311  0.23636399    -0.12640
C154        C  0.23562652  0.26442962  0.24953180     0.01010
C155        C  0.23566283  0.25068437  0.26339260    -0.11170
C156        C  0.24993332  0.23732060  0.26402002     0.03500
C157        C  0.26420593  0.23748091  0.25068648    -0.10590
H158        H  0.25020559  0.27556240  0.22574553     0.09090
H159        H  0.22475604  0.25053469  0.27390432     0.06620
H160        H  0.27482542  0.22662737  0.25098256     0.06470
C161        C  0.24781439  0.73793302  0.76451588     0.03510
C162        C  0.23377739  0.75156877  0.76367184    -0.12640
C163        C  0.23453235  0.76556158  0.75008723     0.01010
C164        C  0.24925577  0.76578479  0.73720346    -0.11170
C165        C  0.26305736  0.75184878  0.73775048     0.03500
C166        C  0.26237003  0.73795154  0.75145961    -0.10590
H167        H  0.22248095  0.75148791  0.77376930     0.09090
H168        H  0.24976639  0.77653606  0.72657196     0.06620
H169        H  0.27311880  0.72721933  0.75197842     0.06470
C170        C  0.15592290  0.84241552  0.73321354     0.03510
C171        C  0.16889276  0.82770534  0.73320071    -0.12640
C172        C  0.17695423  0.82163564  0.74991277     0.01010
C173        C  0.17164067  0.82985887  0.76684148    -0.11170
C174        C  0.15837498  0.84439488  0.76726021     0.03500
C175        C  0.15077647  0.85089134  0.75024351    -0.10590
H176        H  0.17320812  0.82139328  0.72008422     0.09090
H177        H  0.17768967  0.82465544  0.77974116     0.06620
H178        H  0.14094183  0.86244927  0.75018236     0.06470
C179        C  0.34101330  0.76733717  0.66008689     0.03510
C180        C  0.32719717  0.76718211  0.67400065    -0.12640
C181        C  0.32018181  0.75034066  0.68096092     0.01010
C182        C  0.32707264  0.73343420  0.67376354    -0.11170
C183        C  0.33975708  0.73311257  0.65880843     0.03500
C184        C  0.34704166  0.75020054  0.65230158    -0.10590
H185        H  0.32172216  0.78030926  0.67930449     0.09090
H186        H  0.32258948  0.72041021  0.67993582     0.06620
H187        H  0.35741912  0.75015382  0.64130639     0.06470
C188        C  0.23219141  0.65765925  0.83967517     0.03510
C189        C  0.23156226  0.67292140  0.82745537    -0.12640
C190        C  0.24797352  0.68186069  0.82188802     0.01010
C191        C  0.26519382  0.67568503  0.82893465    -0.11170
C192        C  0.26638991  0.66011410  0.84079853     0.03500
C193        C  0.24966612  0.65127509  0.84636677    -0.10590
H194        H  0.21817750  0.67809882  0.82246228     0.09090
H195        H  0.27776601  0.68297330  0.82490403     0.06620
H196        H  0.25019919  0.63928430  0.85555669     0.06470
In197      In  0.37444068  0.87645478  0.12379728     1.36870
C198        C  0.38244151  0.84225343  0.11216255     0.77960
O199        O  0.40484439  0.88121333  0.11925419    -0.60490
O200        O  0.39426363  0.88355779  0.14714072    -0.51400
C201        C  0.36619192  0.91074459  0.11256401     0.70630
O202        O  0.37043497  0.89786110  0.10103696    -0.46250
C203        C  0.34025220  0.86788611  0.13479502     0.75330
O204        O  0.37948561  0.85559696  0.10082768    -0.58110
O205        O  0.35358644  0.87031117  0.14633474    -0.48210
O206        O  0.38116607  0.84666794  0.12925534    -0.54550
C207        C  0.40819602  0.88468349  0.13624729     0.85510
O208        O  0.36638394  0.90585694  0.12950707    -0.56440
O209        O  0.34466517  0.86995750  0.11782857    -0.59730
C210        C  0.15920319  0.90974963  0.01717741     0.03510
C211        C  0.17206445  0.92454469  0.01623823    -0.12640
C212        C  0.17856231  0.93124645  0.99905998     0.01010
C213        C  0.17105246  0.92393280  0.98253870    -0.11170
C214        C  0.15800776  0.90937927  0.98291867     0.03500
C215        C  0.15225424  0.90211364  0.00027617    -0.10590
H216        H  0.17713454  0.93094567  0.02897164     0.09090
H217        H  0.17539725  0.92956737  0.96920294     0.06620
H218        H  0.14231014  0.89074072  0.00056993     0.06470
C219        C  0.26613416  0.09109578  0.90488827     0.03510
C220        C  0.26596874  0.07671358  0.91809803    -0.12640
C221        C  0.24949358  0.07226459  0.92783952     0.01010
C222        C  0.23306359  0.08232995  0.92362453    -0.11170
C223        C  0.23266787  0.09541385  0.90910781     0.03500
C224        C  0.24937917  0.10014494  0.90002658    -0.10590
H225        H  0.27892685  0.06935171  0.92094382     0.09090
H226        H  0.22031908  0.07989743  0.93134183     0.06620
H227        H  0.24936554  0.11086985  0.88936261     0.06470
C228        C  0.23679218  0.98682245  0.99917533     0.03510
C229        C  0.23790890  0.99993901  0.98477272    -0.12640
C230        C  0.25008230  0.01536234  0.98619382     0.01010
C231        C  0.26158933  0.01673748  0.00218598    -0.11170
C232        C  0.26186382  0.00249287  0.01555217     0.03500
C233        C  0.24914897  0.98779451  0.01428150    -0.10590
H234        H  0.22892058  0.99811408  0.97271293     0.09090
H235        H  0.27054062  0.02866401  0.00441742     0.06620
H236        H  0.24885350  0.97715396  0.02503661     0.06470
C237        C  0.34141069  0.01888147  0.09233834     0.03510
C238        C  0.34870627  0.00178696  0.09874018    -0.12640
C239        C  0.34188161  0.98488732  0.09135560     0.01010
C240        C  0.32738737  0.98523463  0.07812787    -0.11170
C241        C  0.31990748  0.00225717  0.07176386     0.03500
C242        C  0.32734833  0.01902208  0.07868876    -0.10590
H243        H  0.35976145  0.00164367  0.10914343     0.09090
H244        H  0.32178233  0.97212127  0.07300848     0.06620
H245        H  0.32238089  0.03231307  0.07337015     0.06470
In246      In  0.12398024  0.87540112  0.87564588     1.36870
C247        C  0.11271657  0.90940243  0.86643153     0.77960
O248        O  0.11869962  0.88497023  0.90464577    -0.60490
O249        O  0.14701540  0.87898253  0.89696939    -0.51400
C250        C  0.11198960  0.84160994  0.88393447     0.70630
O251        O  0.10075305  0.85519119  0.88161398    -0.46250
C252        C  0.13577908  0.86727771  0.84165935     0.75330
O253        O  0.10121638  0.89681368  0.87122859    -0.58110
O254        O  0.14704109  0.87066934  0.85501415    -0.48210
O255        O  0.12970782  0.90441287  0.86639287    -0.54550
C256        C  0.13566747  0.88441137  0.90949251     0.85510
O257        O  0.12907495  0.84533684  0.88170088    -0.56440
O258        O  0.11862275  0.86801966  0.84598481    -0.59730
C259        C  0.98238799  0.90843122  0.65800010     0.03510
C260        C  0.98267153  0.92281775  0.67137377    -0.12640
C261        C  0.99962495  0.92989310  0.67831025     0.01010
C262        C  0.01649211  0.92299137  0.67095199    -0.11170
C263        C  0.01650155  0.90917959  0.65704150     0.03500
C264        C  0.99944241  0.90168544  0.65071535    -0.10590
H265        H  0.96952080  0.92862358  0.67622435     0.09090
H266        H  0.02975551  0.92813686  0.67620488     0.06620
H267        H  0.99947496  0.89061463  0.64034099     0.06470
C268        C  0.09186570  0.01713072  0.84079051     0.03510
C269        C  0.09806389  0.00016232  0.84862890    -0.12640
C270        C  0.09028030  0.98314029  0.84252089     0.01010
C271        C  0.07631310  0.98322197  0.82873819    -0.11170
C272        C  0.07021989  0.00007520  0.82092739     0.03500
C273        C  0.07801764  0.01695634  0.82690320    -0.10590
H274        H  0.10882699  0.00020119  0.85933236     0.09090
H275        H  0.07032976  0.97014623  0.82393994     0.06620
H276        H  0.07316197  0.02999883  0.82087307     0.06470
C277        C  0.00027132  0.98726954  0.73525153     0.03510
C278        C  0.01404406  0.98719364  0.74915794    -0.12640
C279        C  0.01362375  0.00053246  0.76354111     0.01010
C280        C  0.99912954  0.01383366  0.76399955    -0.11170
C281        C  0.98534788  0.01420605  0.74991975     0.03500
C282        C  0.98614710  0.00086737  0.73547996    -0.10590
H283        H  0.02486706  0.97652664  0.74896018     0.09090
H284        H  0.99869078  0.02397051  0.77528410     0.06620
H285        H  0.97598005  0.00112872  0.72421824     0.06470
C286        C  0.90683020  0.09174588  0.76713687     0.03510
C287        C  0.92109698  0.07818493  0.76687945    -0.12640
C288        C  0.92844929  0.07172206  0.74995432     0.01010
C289        C  0.92182819  0.07899892  0.73307409    -0.11170
C290        C  0.90800838  0.09293015  0.73301018     0.03500
C291        C  0.90048169  0.09934497  0.75005884    -0.10590
H292        H  0.92649941  0.07256366  0.77988694     0.09090
H293        H  0.92751143  0.07388430  0.71996376     0.06620
H294        H  0.88956382  0.10990251  0.74999742     0.06470
In295      In  0.12416862  0.12526570  0.87404676     1.36870
C296        C  0.15812565  0.11698593  0.88615930     0.77960
O297        O  0.11412721  0.09659233  0.87966609    -0.60490
O298        O  0.12009259  0.10365815  0.85131505    -0.51400
C299        C  0.09047268  0.13489896  0.88517078     0.70630
O300        O  0.10269344  0.12885998  0.89659280    -0.46250
C301        C  0.13320428  0.15918774  0.86269737     0.75330
O302        O  0.14510317  0.12167987  0.89729828    -0.58110
O303        O  0.12924548  0.14615245  0.85123468    -0.48210
O304        O  0.15341454  0.11629315  0.86913138    -0.54550
C305        C  0.11454932  0.09136129  0.86279394     0.85510
O306        O  0.09558852  0.13588868  0.86830534    -0.56440
O307        O  0.13245803  0.15459075  0.87973382    -0.59730
In308      In  0.37421273  0.12683210  0.12445602     1.36870
C309        C  0.36248447  0.16093326  0.13279429     0.77960
O310        O  0.36839834  0.11817277  0.15355646    -0.60490
O311        O  0.39695145  0.12202790  0.14579788    -0.51400
C312        C  0.36343502  0.09278987  0.11538492     0.70630
O313        O  0.35185527  0.10509610  0.12100866    -0.46250
C314        C  0.38548853  0.13570280  0.09050265     0.75330
O315        O  0.35119309  0.14812222  0.12792510    -0.58110
O316        O  0.39701944  0.13194888  0.10355526    -0.48210
O317        O  0.37948421  0.15600387  0.13345010    -0.54550
C318        C  0.38537676  0.11767872  0.15851749     0.85510
O319        O  0.38024298  0.09811239  0.11437793    -0.56440
O320        O  0.36844490  0.13486036  0.09512055    -0.59730
In321      In  0.62406895  0.87677345  0.12416029     1.36870
C322        C  0.65857936  0.88823555  0.11718430     0.77960
O323        O  0.63029913  0.88160546  0.15413887    -0.60490
O324        O  0.62862003  0.85337336  0.14458774    -0.51400
C325        C  0.58980239  0.88875169  0.13174732     0.70630
O326        O  0.60329116  0.89993147  0.12907177    -0.46250
C327        C  0.61598517  0.86570198  0.08979844     0.75330
O328        O  0.64523943  0.89965077  0.12015924    -0.58110
O329        O  0.61962989  0.85411732  0.10273881    -0.48210
O330        O  0.65396983  0.87123067  0.11775339    -0.54550
C331        C  0.63152388  0.86446534  0.15818361     0.85510
O332        O  0.59411628  0.87163734  0.13051990    -0.56440
O333        O  0.61684845  0.88267721  0.09461798    -0.59730
In334      In  0.62343860  0.87584137  0.87400829     1.36870
C335        C  0.61226007  0.86676933  0.90804762     0.77960
O336        O  0.61764027  0.84690728  0.86451571    -0.60490
O337        O  0.64614810  0.85431341  0.86983211    -0.51400
C338        C  0.61141475  0.88378850  0.84003165     0.70630
O339        O  0.60023128  0.88071795  0.85345191    -0.46250
C340        C  0.63531634  0.90978912  0.88227373     0.75330
O341        O  0.60068619  0.87149040  0.89538842    -0.58110
O342        O  0.64664101  0.89647559  0.87897262    -0.48210
O343        O  0.62919512  0.86694850  0.90308689    -0.54550
C344        C  0.63460178  0.84184108  0.86469806     0.85510
O345        O  0.62859323  0.88287796  0.84430389    -0.56440
O346        O  0.61818915  0.90571375  0.88105185    -0.59730
C347        C  0.40967105  0.73380007  0.09221440     0.03510
C348        C  0.40121446  0.75077761  0.09789064    -0.12640
C349        C  0.40716206  0.76797806  0.09032550     0.01010
C350        C  0.42152626  0.76787231  0.07695884    -0.11170
C351        C  0.42952015  0.75110798  0.07090986     0.03500
C352        C  0.42356996  0.73418450  0.07839825    -0.10590
H353        H  0.39002831  0.75053806  0.10805886     0.09090
H354        H  0.42659038  0.78088353  0.07117148     0.06620
H355        H  0.42959138  0.72127848  0.07314673     0.06470
C356        C  0.51412472  0.76499587  0.99990615     0.03510
C357        C  0.50063774  0.76474438  0.01415105    -0.12640
C358        C  0.48599082  0.75179596  0.01373480     0.01010
C359        C  0.48491144  0.73889438  0.99900396    -0.11170
C360        C  0.49864787  0.73840775  0.98502688     0.03500
C361        C  0.51297464  0.75178594  0.98536793    -0.10590
H362        H  0.50139060  0.77477783  0.02550570     0.09090
H363        H  0.47339202  0.72910787  0.99855564     0.06620
H364        H  0.52323371  0.75190371  0.97426715     0.06470
C365        C  0.48156012  0.65970196  0.90798688     0.03510
C366        C  0.48172235  0.67450434  0.92086262    -0.12640
C367        C  0.49858718  0.68147664  0.92774514     0.01010
C368        C  0.51554065  0.67381323  0.92171872    -0.11170
C369        C  0.51587445  0.65857765  0.90923739     0.03500
C370        C  0.49867734  0.65147213  0.90249921    -0.10590
H371        H  0.46865268  0.68056727  0.92568593     0.09090
H372        H  0.52848715  0.67970931  0.92696397     0.06620
H373        H  0.49852593  0.63966071  0.89301973     0.06470
C374        C  0.59267182  0.84210658  0.01606222     0.03510
C375        C  0.59817719  0.85006318  0.99896682    -0.12640
C376        C  0.58997211  0.84397231  0.98210630     0.01010
C377        C  0.57632003  0.82998333  0.98245707    -0.11170
C378        C  0.57082974  0.82210629  0.99942381     0.03500
C379        C  0.57895689  0.82816909  0.01614926    -0.10590
H380        H  0.60878997  0.86083593  0.99877669     0.09090
H381        H  0.57006113  0.82512243  0.96950190     0.06620
H382        H  0.57447610  0.82212861  0.02927621     0.06470
C383        C  0.65708902  0.73390050  0.83984423     0.03510
C384        C  0.65004419  0.75084813  0.84726595    -0.12640
C385        C  0.65783397  0.76803065  0.84186438     0.01010
C386        C  0.67241297  0.76832559  0.82886564    -0.11170
C387        C  0.67954642  0.75165269  0.82156859     0.03500
C388        C  0.67219477  0.73454086  0.82730516    -0.10590
H389        H  0.63845023  0.75072988  0.85699662     0.09090
H390        H  0.67812446  0.78156785  0.82431192     0.06620
H391        H  0.67827122  0.72174757  0.82186467     0.06470
C392        C  0.84066146  0.65917115  0.73337882     0.03510
C393        C  0.82735378  0.67362275  0.73334081    -0.12640
C394        C  0.82023118  0.68088777  0.75012342     0.01010
C395        C  0.82660103  0.67339666  0.76709640    -0.11170
C396        C  0.84046992  0.65944921  0.76751598     0.03500
C397        C  0.84748723  0.65231833  0.75052875    -0.10590
H398        H  0.82267989  0.67931105  0.72009380     0.09090
H399        H  0.82077095  0.67843084  0.78014024     0.06620
H400        H  0.85776306  0.64113940  0.75063478     0.06470
C401        C  0.73175115  0.84155134  0.65610141     0.03510
C402        C  0.73165439  0.82759190  0.66974773    -0.12640
C403        C  0.74841920  0.82150580  0.67779930     0.01010
C404        C  0.76540674  0.82923494  0.67214354    -0.11170
C405        C  0.76583417  0.84323817  0.65844447     0.03500
C406        C  0.74882937  0.84945078  0.65047372    -0.10590
H407        H  0.71849542  0.82166542  0.67431243     0.09090
H408        H  0.77832665  0.82419549  0.67835879     0.06620
H409        H  0.74882024  0.86052852  0.64018535     0.06470
C410        C  0.76319610  0.73828134  0.74943361     0.03510
C411        C  0.76253023  0.75176932  0.73534332    -0.12640
C412        C  0.74882939  0.76585891  0.73570785     0.01010
C413        C  0.73559246  0.76610641  0.75018064    -0.11170
C414        C  0.73613383  0.75258177  0.76436382     0.03500
C415        C  0.75003122  0.73868116  0.76387282    -0.10590
H416        H  0.77292664  0.75149801  0.72432928     0.09090
H417        H  0.72482460  0.77681618  0.75037958     0.06620
H418        H  0.75041310  0.72789334  0.77446908     0.06470
C419        C  0.51591901  0.91117644  0.15650902     0.03510
C420        C  0.49840509  0.90442828  0.15025050    -0.12640
C421        C  0.48168511  0.90979302  0.15943462     0.01010
C422        C  0.48294429  0.92156244  0.17514426    -0.11170
C423        C  0.50005984  0.92900190  0.18073458     0.03500
C424        C  0.51646625  0.92368145  0.17165478    -0.10590
H425        H  0.49780881  0.89542635  0.13806512     0.09090
H426        H  0.47056944  0.92529516  0.18303529     0.06620
H427        H  0.52969219  0.92933946  0.17646189     0.06470
C428        C  0.48550943  0.01540073  0.24961306     0.03510
C429        C  0.49917746  0.01564697  0.26362313    -0.12640
C430        C  0.51322754  0.00196222  0.26390761     0.01010
C431        C  0.51364024  0.98813509  0.24999953    -0.11170
C432        C  0.49980945  0.98761794  0.23603736     0.03500
C433        C  0.48563855  0.00128884  0.23602999    -0.10590
H434        H  0.49897256  0.02656824  0.27417188     0.09090
H435        H  0.52470608  0.97772238  0.25013969     0.06620
H436        H  0.47460653  0.00092277  0.22560867     0.06470
C437        C  0.40623030  0.09181244  0.26644403     0.03510
C438        C  0.40009421  0.09964144  0.24940353    -0.12640
C439        C  0.40868422  0.09442114  0.23244380     0.01010
C440        C  0.42298861  0.08095563  0.23256267    -0.11170
C441        C  0.42900636  0.07291322  0.24935610     0.03500
C442        C  0.42101442  0.07885091  0.26620991    -0.10590
H443        H  0.38874998  0.10973992  0.24931253     0.09090
H444        H  0.42906939  0.07633631  0.21945426     0.06620
H445        H  0.42649680  0.07341510  0.27924510     0.06470
C446        C  0.59272544  0.01841521  0.33986345     0.03510
C447        C  0.57810686  0.01837486  0.32669129    -0.12640
C448        C  0.56986605  0.00166678  0.32096726     0.01010
C449        C  0.57581377  0.98474151  0.32859778    -0.11170
C450        C  0.59032522  0.98427198  0.34183243     0.03500
C451        C  0.59890955  0.00117726  0.34730623    -0.10590
H452        H  0.57294585  0.03139312  0.32088277     0.09090
H453        H  0.56938199  0.97185783  0.32386734     0.06620
H454        H  0.61031653  0.00085820  0.35728250     0.06470
In455      In  0.12393740  0.37595597  0.87455307     1.36870
C456        C  0.11346115  0.38436386  0.84013629     0.77960
O457        O  0.11816468  0.40619181  0.87920719    -0.60490
O458        O  0.14633723  0.39626536  0.88262103    -0.51400
C459        C  0.11119628  0.36820136  0.90819508     0.70630
O460        O  0.10038636  0.36906801  0.89410315    -0.46250
C461        C  0.13633370  0.34180248  0.86678000     0.75330
O462        O  0.10162178  0.38082938  0.85285935    -0.58110
O463        O  0.14739857  0.35544975  0.86920202    -0.48210
O464        O  0.13039529  0.38335236  0.84521222    -0.54550
C465        C  0.13495075  0.40992432  0.88335966     0.85510
O466        O  0.12816217  0.37179537  0.90504135    -0.56440
O467        O  0.11922174  0.34586229  0.86856534    -0.59730
In468      In  0.12461520  0.62618023  0.87528407     1.36870
C469        C  0.13305841  0.59204409  0.88675647     0.77960
O470        O  0.09447572  0.62007936  0.87967180    -0.60490
O471        O  0.10471417  0.62024714  0.85158806    -0.51400
C472        C  0.11713192  0.66061107  0.88693451     0.70630
O473        O  0.12021986  0.64732054  0.89829312    -0.46250
C474        C  0.15889197  0.63397782  0.86394505     0.75330
O475        O  0.12738064  0.60451539  0.89810377    -0.58110
O476        O  0.14551229  0.63129286  0.85251858    -0.48210
O477        O  0.13405021  0.59713562  0.86991916    -0.54550
C478        C  0.09098927  0.61784852  0.86251243     0.85510
O479        O  0.11796234  0.65601318  0.86988287    -0.56440
O480        O  0.15444702  0.63270349  0.88099589    -0.59730
C481        C  0.99969408  0.51394139  0.76421580     0.03510
C482        C  0.98597527  0.51394519  0.75019071    -0.12640
C483        C  0.98611567  0.50021099  0.73621954     0.01010
C484        C  0.00003772  0.48639724  0.73626428    -0.11170
C485        C  0.01355959  0.48594028  0.75050452     0.03500
C486        C  0.01336585  0.49981313  0.76442908    -0.10590
H487        H  0.97518426  0.52464630  0.75012446     0.09090
H488        H  0.00024729  0.47593983  0.72526140     0.06620
H489        H  0.02386829  0.49965280  0.77539639     0.06470
C490        C  0.09308478  0.41029266  0.73207497     0.03510
C491        C  0.09941075  0.40232490  0.74901192    -0.12640
C492        C  0.09092554  0.40731920  0.76608316     0.01010
C493        C  0.07649579  0.42061105  0.76623377    -0.11170
C494        C  0.07049388  0.42886937  0.74961623     0.03500
C495        C  0.07860482  0.42363114  0.73262694    -0.10590
H496        H  0.11082947  0.39231616  0.74896006     0.09090
H497        H  0.07017549  0.42482782  0.77936867     0.06620
H498        H  0.07348596  0.42990467  0.71980854     0.06470
C499        C  0.90968593  0.51763790  0.65760449     0.03510
C500        C  0.92377989  0.51722345  0.67127547    -0.12640
C501        C  0.92968518  0.50032871  0.67898043     0.01010
C502        C  0.92151595  0.48359466  0.67322555    -0.11170
C503        C  0.90703590  0.48350883  0.65989528     0.03500
C504        C  0.90104779  0.50072250  0.65221611    -0.10590
H505        H  0.92995256  0.53010945  0.67630290     0.09090
H506        H  0.92662553  0.47059716  0.67912282     0.06620
H507        H  0.88970234  0.50103372  0.64216662     0.06470
C508        C  0.98331186  0.59055309  0.84342730     0.03510
C509        C  0.00053652  0.59847827  0.84892380    -0.12640
C510        C  0.01740550  0.59253380  0.84044927     0.01010
C511        C  0.01662461  0.57896581  0.82622769    -0.11170
C512        C  0.99964259  0.57091873  0.82102231     0.03500
C513        C  0.98307781  0.57661919  0.82962018    -0.10590
H514        H  0.00077444  0.60879986  0.86002991     0.09090
H515        H  0.02930950  0.57445848  0.81921807     0.06620
H516        H  0.96992715  0.57041775  0.82529498     0.06470
C517        C  0.84211303  0.48440923  0.09245847     0.03510
C518        C  0.84847636  0.50158007  0.09989474    -0.12640
C519        C  0.84068698  0.51866682  0.09368971     0.01010
C520        C  0.82690114  0.51834546  0.07968727    -0.11170
C521        C  0.82038804  0.50143320  0.07253910     0.03500
C522        C  0.82773908  0.48460681  0.07905210    -0.10590
H523        H  0.85941092  0.50167246  0.11038243     0.09090
H524        H  0.82114909  0.53130101  0.07428637     0.06620
H525        H  0.82229327  0.47161031  0.07346060     0.06470
C526        C  0.73724471  0.48723763  0.99983458     0.03510
C527        C  0.75233115  0.48631530  0.01244364    -0.12640
C528        C  0.76439728  0.50147891  0.01478905     0.01010
C529        C  0.76232058  0.51722790  0.00347128    -0.11170
C530        C  0.74936033  0.51739702  0.98872627     0.03500
C531        C  0.73639036  0.50261298  0.98753511    -0.10590
H532        H  0.75487400  0.47386405  0.02058328     0.09090
H533        H  0.77095942  0.52930901  0.00624081     0.06620
H534        H  0.72562450  0.50310325  0.97700352     0.06470
C535        C  0.76628527  0.59040342  0.90534864     0.03510
C536        C  0.76621841  0.57753549  0.92004226    -0.12640
C537        C  0.74998513  0.57467736  0.93070390     0.01010
C538        C  0.73407241  0.58539222  0.92644008    -0.11170
C539        C  0.73282299  0.59591788  0.90991438     0.03500
C540        C  0.74938232  0.59875765  0.89954683    -0.10590
H541        H  0.77909167  0.57019037  0.92324906     0.09090
H542        H  0.72229569  0.58529045  0.93587163     0.06620
H543        H  0.74940302  0.60735474  0.88715658     0.06470
C544        C  0.66013906  0.40671046  0.98237396     0.03510
C545        C  0.67434427  0.42017105  0.98261290    -0.12640
C546        C  0.67842087  0.43053612  0.99883679     0.01010
C547        C  0.66856348  0.42635522  0.01531963    -0.11170
C548        C  0.65536698  0.41189035  0.01580664     0.03500
C549        C  0.65079816  0.40248516  0.99911149    -0.10590
H550        H  0.68200744  0.42267549  0.96991901     0.09090
H551        H  0.67137315  0.43405158  0.02805232     0.06620
H552        H  0.64003244  0.39186555  0.99914409     0.06470
In553      In  0.87449199  0.62406107  0.87425435     1.36870
C554        C  0.90887545  0.61268600  0.86627243     0.77960
O555        O  0.86632181  0.61926499  0.84467963    -0.60490
O556        O  0.86912065  0.64755875  0.85409819    -0.51400
C557        C  0.84047223  0.61228037  0.88259313     0.70630
O558        O  0.85301014  0.60112322  0.87666303    -0.46250
C559        C  0.88325386  0.63576790  0.90827133     0.75330
O560        O  0.89600356  0.60128403  0.87053687    -0.58110
O561        O  0.87956977  0.64702510  0.89505488    -0.48210
O562        O  0.90383391  0.62962402  0.86591926    -0.54550
C563        C  0.86520001  0.63642808  0.84082327     0.85510
O564        O  0.84556862  0.62908485  0.88426552    -0.56440
O565        O  0.88227515  0.61866436  0.90386466    -0.59730
In566      In  0.62433877  0.37695695  0.37511485     1.36870
C567        C  0.63580439  0.34282221  0.36677963     0.77960
O568        O  0.62972993  0.37037428  0.40491769    -0.60490
O569        O  0.60132350  0.37117067  0.39570628    -0.51400
C570        C  0.63690093  0.41083464  0.38304235     0.70630
O571        O  0.64789555  0.39714980  0.38012963    -0.46250
C572        C  0.61269006  0.38542673  0.34120067     0.75330
O573        O  0.64715832  0.35608136  0.36994708    -0.58110
O574        O  0.60149915  0.38477630  0.35493482    -0.48210
O575        O  0.61869318  0.34723723  0.36810253    -0.54550
C576        C  0.61268370  0.36849135  0.40913447     0.85510
O577        O  0.61972551  0.40693172  0.38175070    -0.56440
O578        O  0.62950276  0.38134531  0.34484563    -0.59730
In579      In  0.12443957  0.87624703  0.12441215     1.36870
C580        C  0.15866218  0.86544184  0.13337302     0.77960
O581        O  0.13019157  0.87069410  0.09434006    -0.60490
O582        O  0.13188359  0.89895151  0.10419234    -0.51400
C583        C  0.09021913  0.86512368  0.11613777     0.70630
O584        O  0.10328600  0.85356681  0.11981605    -0.46250
C585        C  0.11509797  0.88722233  0.15828512     0.75330
O586        O  0.14610893  0.85375906  0.12870622    -0.58110
O587        O  0.11694564  0.89878043  0.14498457    -0.48210
O588        O  0.15349359  0.88234906  0.13319089    -0.54550
C589        C  0.13353420  0.88759106  0.09061450     0.85510
O590        O  0.09495629  0.88211777  0.11674133    -0.56440
O591        O  0.11828903  0.87031278  0.15422190    -0.59730
C592        C  0.90756330  0.65892919  0.98224554     0.03510
C593        C  0.90140186  0.65132901  0.99932107    -0.12640
C594        C  0.90801667  0.65856249  0.01649177     0.01010
C595        C  0.92045839  0.67369061  0.01625280    -0.11170
C596        C  0.92730666  0.68082648  0.99942331     0.03500
C597        C  0.92100063  0.67315605  0.98253281    -0.10590
H598        H  0.89156010  0.63988821  0.99919208     0.09090
H599        H  0.92488062  0.67998588  0.02933005     0.06620
H600        H  0.92672628  0.67809205  0.96944934     0.06470
C601        C  0.01640573  0.84097385  0.09333131     0.03510
C602        C  0.99921560  0.84933473  0.09836280    -0.12640
C603        C  0.98222998  0.84283481  0.09056782     0.01010
C604        C  0.98281162  0.82789962  0.07777605    -0.11170
C605        C  0.99987624  0.82011494  0.07225204     0.03500
C606        C  0.01655772  0.82656334  0.08002180    -0.10590
H607        H  0.99909336  0.86077075  0.10832897     0.09090
H608        H  0.97000007  0.82217396  0.07206596     0.06620
H609        H  0.02972709  0.82053830  0.07543020     0.06470
C610        C  0.99950019  0.76421783  0.01436213     0.03510
C611        C  0.98548010  0.75059278  0.01448797    -0.12640
C612        C  0.98416814  0.73763693  0.99988206     0.01010
C613        C  0.99690812  0.73815508  0.98509884    -0.11170
C614        C  0.01103861  0.75166750  0.98479378     0.03500
C615        C  0.01222205  0.76472693  0.99945552    -0.10590
H616        H  0.97532954  0.75027864  0.02572176     0.09090
H617        H  0.99607120  0.72771195  0.97411463     0.06620
H618        H  0.02308157  0.77525855  0.99930321     0.06470
C619        C  0.09134222  0.73405832  0.91004678     0.03510
C620        C  0.09795240  0.75138493  0.90330776    -0.12640
C621        C  0.08897771  0.76828790  0.90845978     0.01010
C622        C  0.07308016  0.76750278  0.91990135    -0.11170
C623        C  0.06684269  0.75054900  0.92699686     0.03500
C624        C  0.07566379  0.73390580  0.92184030    -0.10590
H625        H  0.11024907  0.75171976  0.89449246     0.09090
H626        H  0.06560919  0.78015922  0.92367694     0.06620
H627        H  0.07022638  0.72084083  0.92710571     0.06470
In628      In  0.87429360  0.87615593  0.12546395     1.36870
C629        C  0.88337108  0.91025484  0.13622404     0.77960
O630        O  0.90412058  0.86949346  0.13103751    -0.60490
O631        O  0.89489415  0.86986330  0.10260574    -0.51400
C632        C  0.86679497  0.84201451  0.13707264     0.70630
O633        O  0.86991974  0.85533262  0.14846594    -0.46250
C634        C  0.84026374  0.88468791  0.11377381     0.75330
O635        O  0.87809849  0.89806213  0.14793956    -0.58110
O636        O  0.85389568  0.88309860  0.10253906    -0.48210
O637        O  0.88352718  0.90492450  0.11939045    -0.54550
C638        C  0.90839389  0.86751895  0.11399142     0.85510
O639        O  0.86767582  0.84644198  0.11999818    -0.56440
O640        O  0.84405500  0.88157916  0.13072374    -0.59730
C641        C  0.76667360  0.66037738  0.34258458     0.03510
C642        C  0.76662758  0.67370324  0.32825234    -0.12640
C643        C  0.74980703  0.68058502  0.32082444     0.01010
C644        C  0.73285940  0.67307594  0.32707565    -0.11170
C645        C  0.73259564  0.65886480  0.34050938     0.03500
C646        C  0.74955498  0.65277728  0.34855124    -0.10590
H647        H  0.77983253  0.67860077  0.32275778     0.09090
H648        H  0.71972488  0.67846978  0.32167724     0.06620
H649        H  0.74941970  0.64218594  0.35934131     0.06470
C650        C  0.73480209  0.76487149  0.24980034     0.03510
C651        C  0.73553664  0.75159297  0.26421249    -0.12640
C652        C  0.74945505  0.73777468  0.26429119     0.01010
C653        C  0.76309633  0.73746348  0.25032315    -0.11170
C654        C  0.76253470  0.75069869  0.23601636     0.03500
C655        C  0.74835276  0.76420819  0.23563024    -0.10590
H656        H  0.72548056  0.75205025  0.27551651     0.09090
H657        H  0.77399131  0.72686619  0.25048512     0.06620
H658        H  0.74795484  0.77420766  0.22428280     0.06470
C659        C  0.84127197  0.76877408  0.16013755     0.03510
C660        C  0.84732653  0.75174164  0.15207418    -0.12640
C661        C  0.83906269  0.73466314  0.15728706     0.01010
C662        C  0.82520088  0.73475140  0.17111431    -0.11170
C663        C  0.81875608  0.75151856  0.17884550     0.03500
C664        C  0.82658541  0.76843322  0.17314425    -0.10590
H665        H  0.85842614  0.75174516  0.14179361     0.09090
H666        H  0.81959896  0.72168334  0.17620529     0.06620
H667        H  0.82097914  0.78136694  0.17876212     0.06470
C668        C  0.65831809  0.84393544  0.26622198     0.03510
C669        C  0.64982937  0.84938832  0.24927446    -0.12640
C670        C  0.65623947  0.84202521  0.23208273     0.01010
C671        C  0.67091874  0.82889161  0.23223282    -0.11170
C672        C  0.67877091  0.82291266  0.24908183     0.03500
C673        C  0.67255805  0.83044266  0.26596749    -0.10590
H674        H  0.63831198  0.85926392  0.24955083     0.09090
H675        H  0.67622619  0.82314567  0.21923306     0.06620
H676        H  0.67869805  0.82559651  0.27897146     0.06470
C677        C  0.90713179  0.26780912  0.09025096     0.03510
C678        C  0.90101864  0.25064970  0.09774761    -0.12640
C679        C  0.90894596  0.23359992  0.09160875     0.01010
C680        C  0.92226535  0.23383183  0.07725763    -0.11170
C681        C  0.92849827  0.25071631  0.06992254     0.03500
C682        C  0.92121109  0.26758680  0.07658672    -0.10590
H683        H  0.89014102  0.25049486  0.10824644     0.09090
H684        H  0.92787398  0.22084862  0.07173981     0.06620
H685        H  0.92648834  0.28058111  0.07095320     0.06470
C686        C  0.01710991  0.15874548  0.90823270     0.03510
C687        C  0.99992223  0.15248144  0.90092787    -0.12640
C688        C  0.98294340  0.15989683  0.90779342     0.01010
C689        C  0.98342013  0.17289541  0.92253485    -0.11170
C690        C  0.00048389  0.17913925  0.92970644     0.03500
C691        C  0.01724910  0.17221306  0.92247660    -0.10590
H692        H  0.99980161  0.14234671  0.88963446     0.09090
H693        H  0.97050940  0.17830996  0.92839419     0.06620
H694        H  0.03044731  0.17725430  0.92802519     0.06470
C695        C  0.00050013  0.23691758  0.98590796     0.03510
C696        C  0.98657053  0.23688421  0.99973689    -0.12640
C697        C  0.98531592  0.25150811  0.01286837     0.01010
C698        C  0.99797025  0.26639576  0.01173683    -0.11170
C699        C  0.01236635  0.26606724  0.99859472     0.03500
C700        C  0.01374874  0.25132512  0.98581991    -0.10590
H701        H  0.97666137  0.22548550  0.00020423     0.09090
H702        H  0.99684214  0.27821514  0.02118085     0.06620
H703        H  0.02513877  0.25112514  0.97584044     0.06470
C704        C  0.09255704  0.34111099  0.01618078     0.03510
C705        C  0.09889593  0.34799432  0.99883714    -0.12640
C706        C  0.08958942  0.34316139  0.98201782     0.01010
C707        C  0.07417293  0.33104679  0.98295795    -0.11170
C708        C  0.06851622  0.32330323  0.99991789     0.03500
C709        C  0.07740502  0.32873612  0.01646217    -0.10590
H710        H  0.11122088  0.35671416  0.99851974     0.09090
H711        H  0.06666665  0.32720059  0.97035830     0.06620
H712        H  0.07233637  0.32339078  0.02966880     0.06470
C713        C  0.90987522  0.59277256  0.23210414     0.03510
C714        C  0.92557981  0.58096047  0.23344958    -0.12640
C715        C  0.93058458  0.57279928  0.25043902     0.01010
C716        C  0.92100723  0.57771159  0.26671632    -0.11170
C717        C  0.90614609  0.59055640  0.26613608     0.03500
C718        C  0.90035881  0.59781793  0.24870313    -0.10590
H719        H  0.93376738  0.57760550  0.22117047     0.09090
H720        H  0.92544794  0.57176836  0.27993723     0.06620
H721        H  0.88832336  0.60704706  0.24809535     0.06470
C722        C  0.99952293  0.48657608  0.23675217     0.03510
C723        C  0.98595790  0.50074346  0.23661658    -0.12640
C724        C  0.98685849  0.51528565  0.24972071     0.01010
C725        C  0.00106112  0.51542050  0.26320657    -0.11170
C726        C  0.01419001  0.50081011  0.26402556     0.03500
C727        C  0.01352511  0.48654865  0.25049701    -0.10590
H728        H  0.97499543  0.50068105  0.22610206     0.09090
H729        H  0.00172365  0.52685205  0.27316545     0.06620
H730        H  0.02367586  0.47524981  0.25078971     0.06470
C731        C  0.01635432  0.40908563  0.15808807     0.03510
C732        C  0.01591527  0.42233460  0.17260885    -0.12640
C733        C  0.99886680  0.42919588  0.17966638     0.01010
C734        C  0.98209910  0.42228924  0.17212902    -0.11170
C735        C  0.98228251  0.40837407  0.15833219     0.03500
C736        C  0.99939170  0.40193247  0.15109897    -0.10590
H737        H  0.02901435  0.42719814  0.17849328     0.09090
H738        H  0.96875478  0.42783831  0.17672997     0.06620
H739        H  0.99945741  0.39160129  0.13998654     0.06470
C740        C  0.09161466  0.48381768  0.34236153     0.03510
C741        C  0.07724599  0.48373106  0.32906108    -0.12640
C742        C  0.07075978  0.50047840  0.32146308     0.01010
C743        C  0.07837679  0.51745822  0.32735727    -0.11170
C744        C  0.09306541  0.51788660  0.34046914     0.03500
C745        C  0.09979318  0.50083768  0.34783671    -0.10590
H746        H  0.07122714  0.47059166  0.32448101     0.09090
H747        H  0.07285846  0.53034714  0.32158235     0.06620
H748        H  0.11138257  0.50070651  0.35761921     0.06470
In749      In  0.87429868  0.37587857  0.12529791     1.36870
C750        C  0.88270273  0.34185930  0.11323442     0.77960
O751        O  0.90317971  0.38488121  0.11908260    -0.60490
O752        O  0.89617780  0.37978551  0.14765795    -0.51400
C753        C  0.86586333  0.40995575  0.11401077     0.70630
O754        O  0.86872452  0.39663082  0.10256444    -0.46250
C755        C  0.84007424  0.36835013  0.13696097     0.75330
O756        O  0.87922505  0.35521247  0.10208957    -0.58110
O757        O  0.85333687  0.37172456  0.14835115    -0.48210
O758        O  0.88173782  0.34614730  0.13036451    -0.54550
C759        C  0.90849724  0.38481149  0.13593627     0.85510
O760        O  0.86731845  0.40556044  0.13106896    -0.56440
O761        O  0.84463935  0.36886910  0.11992125    -0.59730
In762      In  0.12494242  0.62617417  0.37433347     1.36870
C763        C  0.09110378  0.63339866  0.38718496     0.77960
O764        O  0.13110459  0.65611674  0.37938444    -0.60490
O765        O  0.12900285  0.64697222  0.35108632    -0.51400
C766        C  0.15926862  0.61811108  0.38585482     0.70630
O767        O  0.14584306  0.62055609  0.39721183    -0.46250
C768        C  0.11738134  0.59204616  0.36241456     0.75330
O769        O  0.10532638  0.63307216  0.39783382    -0.58110
O770        O  0.11976518  0.60555069  0.35119223    -0.48210
O771        O  0.09424928  0.62971591  0.37021191    -0.54550
C772        C  0.13202722  0.66041525  0.36231536     0.85510
O773        O  0.15489913  0.62000479  0.36884206    -0.56440
O774        O  0.11915716  0.59623350  0.37951886    -0.59730
In775      In  0.12449357  0.37550396  0.12448736     1.36870
C776        C  0.13342687  0.36426974  0.15838802     0.77960
O777        O  0.15394274  0.37000787  0.11640018    -0.60490
O778        O  0.14531545  0.39852665  0.11977295    -0.51400
C779        C  0.11649153  0.36346999  0.09036641     0.70630
O780        O  0.11932878  0.35230664  0.10386328    -0.46250
C781        C  0.09027195  0.38700064  0.13284040     0.75330
O782        O  0.13071219  0.35274109  0.14514542    -0.58110
O783        O  0.10338663  0.39836008  0.12926135    -0.48210
O784        O  0.13136172  0.38128538  0.15425260    -0.54550
C785        C  0.15828096  0.38706330  0.11563799     0.85510
O786        O  0.11759774  0.38059214  0.09464079    -0.56440
O787        O  0.09486275  0.36994262  0.13184847    -0.59730
C788        C  0.51616669  0.09338325  0.84084602     0.03510
C789        C  0.51627584  0.08000799  0.82651079    -0.12640
C790        C  0.49952261  0.07326203  0.81890550     0.01010
C791        C  0.48250002  0.07955340  0.82642491    -0.11170
C792        C  0.48207690  0.09177081  0.84181751     0.03500
C793        C  0.49905148  0.09894172  0.84882682    -0.10590
H794        H  0.52958067  0.07477220  0.82144876     0.09090
H795        H  0.46945696  0.07502152  0.82017796     0.06620
H796        H  0.49896608  0.10883366  0.86033251     0.06470
C797        C  0.50043812  0.01692391  0.76107161     0.03510
C798        C  0.48622866  0.01601675  0.74761682    -0.12640
C799        C  0.48575951  0.00127297  0.73461663     0.01010
C800        C  0.49982663  0.98750336  0.73524330    -0.11170
C801        C  0.51433789  0.98869766  0.74840214     0.03500
C802        C  0.51465213  0.00344972  0.76126913    -0.10590
H803        H  0.47569767  0.02695098  0.74722781     0.09090
H804        H  0.49956494  0.97587790  0.72548816     0.06620
H805        H  0.52564596  0.00415858  0.77172913     0.06470
C806        C  0.58869463  0.90744557  0.76601917     0.03510
C807        C  0.57617155  0.92260102  0.76629422    -0.12640
C808        C  0.57087276  0.93145890  0.74975885     0.01010
C809        C  0.57851158  0.92563765  0.73277344    -0.11170
C810        C  0.59060344  0.91011463  0.73187024     0.03500
C811        C  0.59556202  0.90095453  0.74866280    -0.10590
H812        H  0.57061944  0.92773470  0.77944539     0.09090
H813        H  0.57459370  0.93305488  0.72016092     0.06620
H814        H  0.60432513  0.88859207  0.74825023     0.06470
C815        C  0.40584129  0.98344747  0.65879086     0.03510
C816        C  0.42075183  0.98353542  0.67164895    -0.12640
C817        C  0.42885185  0.00030787  0.67742937     0.01010
C818        C  0.42259522  0.01722131  0.66999480    -0.11170
C819        C  0.40796952  0.01758644  0.65691320     0.03500
C820        C  0.39937621  0.00066971  0.65153764    -0.10590
H821        H  0.42608247  0.97052350  0.67732119     0.09090
H822        H  0.42897596  0.03017025  0.67462153     0.06620
H823        H  0.38774349  0.00098491  0.64181489     0.06470
C824        C  0.15778886  0.23320296  0.84096421     0.03510
C825        C  0.15185679  0.25023669  0.84904753    -0.12640
C826        C  0.15848210  0.26744769  0.84211253     0.01010
C827        C  0.17098905  0.26723092  0.82697120    -0.11170
C828        C  0.17795742  0.25041278  0.81963262     0.03500
C829        C  0.17118627  0.23350222  0.82667165    -0.10590
H830        H  0.14211543  0.25001776  0.86058957     0.09090
H831        H  0.17528089  0.28031063  0.82077244     0.06620
H832        H  0.17653648  0.22040013  0.82117964     0.06470
C833        C  0.23421101  0.24908136  0.76183736     0.03510
C834        C  0.24789606  0.23502076  0.76223606    -0.12640
C835        C  0.26222435  0.23487941  0.74894837     0.01010
C836        C  0.26278109  0.24864319  0.73513600    -0.11170
C837        C  0.24891039  0.26251316  0.73440991     0.03500
C838        C  0.23469109  0.26279902  0.74790176    -0.10590
H839        H  0.24755672  0.22440002  0.77300708     0.09090
H840        H  0.27386750  0.24840390  0.72480915     0.06620
H841        H  0.22408493  0.27367652  0.74760318     0.06470
C842        C  0.26728570  0.34340123  0.65896369     0.03510
C843        C  0.26744559  0.32692477  0.66952572    -0.12640
C844        C  0.25084541  0.31930071  0.67658828     0.01010
C845        C  0.23374682  0.32703185  0.67047547    -0.11170
C846        C  0.23295914  0.34261475  0.65847502     0.03500
C847        C  0.24999213  0.35118634  0.65341686    -0.10590
H848        H  0.28072415  0.32014028  0.67218513     0.09090
H849        H  0.22085306  0.32088019  0.67511927     0.06620
H850        H  0.24993783  0.36402016  0.64546957     0.06470
C851        C  0.34283058  0.15998178  0.76684110     0.03510
C852        C  0.32858096  0.17350950  0.76665242    -0.12640
C853        C  0.32040954  0.17922129  0.74980061     0.01010
C854        C  0.32645754  0.17123825  0.73296710    -0.11170
C855        C  0.34069920  0.15775100  0.73288079     0.03500
C856        C  0.34884623  0.15199963  0.74984469    -0.10590
H857        H  0.32353681  0.17933170  0.77972755     0.09090
H858        H  0.32033962  0.17579781  0.71984953     0.06620
H859        H  0.35990326  0.14158464  0.74979541     0.06470
In860      In  0.37535409  0.37595788  0.62523244     1.36870
C861        C  0.40963056  0.38422377  0.63653978     0.77960
O862        O  0.38306144  0.34630588  0.63002868    -0.60490
O863        O  0.37907464  0.35509965  0.60184131    -0.51400
C864        C  0.34084401  0.36891561  0.63679415     0.70630
O865        O  0.35417614  0.37186863  0.64822066    -0.46250
C866        C  0.36788089  0.41013728  0.61341302     0.75330
O867        O  0.39718106  0.37891938  0.64798197    -0.58110
O868        O  0.37097334  0.39667160  0.60220219    -0.48210
O869        O  0.40445877  0.38493063  0.61965862    -0.54550
C870        C  0.38303069  0.34183935  0.61292955     0.85510
O871        O  0.34543931  0.36969846  0.61978631    -0.56440
O872        O  0.36861362  0.40585004  0.63055177    -0.59730
In873      In  0.12497450  0.37665587  0.62340269     1.36870
C874        C  0.13200384  0.38823516  0.58902533     0.77960
O875        O  0.15553448  0.38152747  0.62767887    -0.60490
O876        O  0.14522916  0.35374694  0.63105921    -0.51400
C877        C  0.11721895  0.38876805  0.65761906     0.70630
O878        O  0.12030191  0.39997825  0.64425209    -0.46250
C879        C  0.09088380  0.36455864  0.61524277     0.75330
O880        O  0.12914169  0.39958855  0.60243563    -0.58110
O881        O  0.10455202  0.35342827  0.61775212    -0.48210
O882        O  0.13128579  0.37116961  0.59349843    -0.54550
C883        C  0.15908238  0.36475791  0.63187926     0.85510
O884        O  0.11825913  0.37170221  0.65321057    -0.56440
O885        O  0.09488363  0.38165114  0.61708622    -0.59730
C886        C  0.25111114  0.51404906  0.48607903     0.07350
C887        C  0.26557584  0.51331709  0.49945465    -0.12640
C888        C  0.26540345  0.49989028  0.51369094     0.01010
C889        C  0.25147081  0.48624594  0.51377110    -0.11170
C890        C  0.23737071  0.48631715  0.50020890     0.03500
C891        C  0.23692714  0.50047733  0.48670836    -0.10590
H892        H  0.27694807  0.52324488  0.49897335     0.09090
H893        H  0.25157355  0.47553027  0.52445256     0.06620
H894        H  0.22557897  0.50076512  0.47663627     0.06470
C895        C  0.15584958  0.41261831  0.51584266     0.03510
C896        C  0.17100223  0.42496879  0.51672930    -0.12640
C897        C  0.18091877  0.42947372  0.50064135     0.01010
C898        C  0.17620509  0.42130058  0.48357822    -0.11170
C899        C  0.16025605  0.41000051  0.48182134     0.03500
C900        C  0.15028661  0.40538315  0.49827396    -0.10590
H901        H  0.17544931  0.43081204  0.53000435     0.09090
H902        H  0.18496020  0.42418527  0.47163119     0.06620
H903        H  0.13811829  0.39645012  0.49751639     0.06470
C904        C  0.34263850  0.51838471  0.59108602     0.03510
C905        C  0.35102444  0.50153778  0.59715338    -0.12640
C906        C  0.34454374  0.48415962  0.59033867     0.01010
C907        C  0.32981940  0.48390176  0.57730922    -0.11170
C908        C  0.32150962  0.50050186  0.57135435     0.03500
C909        C  0.32752067  0.51755555  0.57855942    -0.10590
H910        H  0.36280768  0.50198293  0.60669579     0.09090
H911        H  0.32472047  0.47074620  0.57176228     0.06620
H912        H  0.32046250  0.53022959  0.57414308     0.06470
C913        C  0.23274048  0.59310038  0.40979603     0.03510
C914        C  0.23308690  0.57832299  0.42266579    -0.12640
C915        C  0.25007428  0.57051818  0.42850279     0.01010
C916        C  0.26688350  0.57698347  0.42104547    -0.11170
C917        C  0.26687649  0.59134222  0.40777370     0.03500
C918        C  0.24976478  0.59950823  0.40226454    -0.10590
H919        H  0.22013908  0.57284845  0.42823171     0.09090
H920        H  0.28001588  0.57089196  0.42568661     0.06620
H921        H  0.24971347  0.61074218  0.39214304     0.06470
In922      In  0.12489793  0.37588108  0.37442179     1.36870
C923        C  0.11245819  0.34234432  0.38247741     0.77960
O924        O  0.11932691  0.36948515  0.34446151    -0.60490
O925        O  0.14769767  0.36937440  0.35394842    -0.51400
C926        C  0.11368715  0.40997076  0.36563662     0.70630
O927        O  0.10206881  0.39736868  0.37007226    -0.46250
C928        C  0.13776329  0.38399502  0.40819103     0.75330
O929        O  0.10151963  0.35631818  0.38125736    -0.58110
O930        O  0.14847022  0.38296563  0.39411310    -0.48210
O931        O  0.12948206  0.34553673  0.37905660    -0.54550
C932        C  0.13641883  0.36731960  0.34034151     0.85510
O933        O  0.13063564  0.40500998  0.36612330    -0.56440
O934        O  0.12079268  0.38044941  0.40497674    -0.59730
In935      In  0.37581142  0.62576882  0.62467413     1.36870
C936        C  0.38820735  0.63340329  0.59085475     0.77960
O937        O  0.38170428  0.59575059  0.61923216    -0.60490
O938        O  0.35322620  0.60532384  0.61768045    -0.51400
C939        C  0.38666069  0.61742866  0.65900153     0.70630
O940        O  0.39831969  0.62157593  0.64631361    -0.46250
C941        C  0.36353684  0.65991482  0.63254118     0.75330
O942        O  0.39925368  0.63183485  0.60469586    -0.58110
O943        O  0.35239004  0.64637427  0.62989332    -0.48210
O944        O  0.37114394  0.63062961  0.59433560    -0.54550
C945        C  0.36474188  0.59184905  0.61610913     0.85510
O946        O  0.36969773  0.61770529  0.65394374    -0.56440
O947        O  0.38063138  0.65572648  0.63096853    -0.59730
In948      In  0.37383597  0.87488261  0.62540792     1.36870
C949        C  0.38106519  0.90925992  0.63724007     0.77960
O950        O  0.40421299  0.87021688  0.63072608    -0.60490
O951        O  0.39421003  0.86764053  0.60260739    -0.51400
C952        C  0.36612892  0.84089416  0.63749141     0.70630
O953        O  0.36876890  0.85448262  0.64866110    -0.46250
C954        C  0.33989948  0.88239067  0.61280859     0.75330
O955        O  0.37843839  0.89584351  0.64850383    -0.58110
O956        O  0.35393276  0.88156941  0.60200147    -0.48210
O957        O  0.37966664  0.90488300  0.62016509    -0.54550
C958        C  0.40793636  0.86664364  0.61384886     0.85510
O959        O  0.36780722  0.84490691  0.62038946    -0.56440
O960        O  0.34325339  0.87904619  0.62980635    -0.59730
C961        C  0.51230152  0.75148146  0.48515808     0.03510
C962        C  0.51397689  0.76336736  0.50075273    -0.12640
C963        C  0.49973056  0.76461349  0.51408209     0.01010
C964        C  0.48478237  0.75204210  0.51326793    -0.11170
C965        C  0.48317545  0.73948882  0.49827205     0.03500
C966        C  0.49634584  0.74011808  0.48377082    -0.10590
H967        H  0.52630832  0.77190029  0.50264021     0.09090
H968        H  0.47444000  0.75207360  0.52429990     0.06620
H969        H  0.49394620  0.73166279  0.47146041     0.06470
C970        C  0.40908546  0.65899475  0.51697898     0.03510
C971        C  0.40143455  0.65248426  0.49983203    -0.12640
C972        C  0.40744924  0.66006810  0.48261898     0.01010
C973        C  0.42006180  0.67501242  0.48285381    -0.11170
C974        C  0.42786698  0.68127046  0.49954081     0.03500
C975        C  0.42275819  0.67309031  0.51639488    -0.10590
H976        H  0.39091045  0.64166910  0.49976346     0.09090
H977        H  0.42399969  0.68183382  0.46995567     0.06620
H978        H  0.42961306  0.67781274  0.52907884     0.06470
C979        C  0.48167239  0.84173204  0.59166357     0.03510
C980        C  0.48244614  0.82934960  0.57643260    -0.12640
C981        C  0.49952280  0.82245185  0.57002898     0.01010
C982        C  0.51618378  0.82850207  0.57811179    -0.11170
C983        C  0.51597973  0.84083152  0.59340045     0.03500
C984        C  0.49859954  0.84763895  0.60004350    -0.10590
H985        H  0.46972275  0.82490328  0.56948402     0.09090
H986        H  0.52932309  0.82338875  0.57251147     0.06620
H987        H  0.49823720  0.85706218  0.61192534     0.06470
C988        C  0.58913200  0.76828962  0.40467347     0.03510
C989        C  0.57472083  0.76835850  0.41789314    -0.12640
C990        C  0.57031745  0.75220344  0.42797682     0.01010
C991        C  0.57982722  0.73559348  0.42348986    -0.11170
C992        C  0.59193866  0.73450141  0.40810671     0.03500
C993        C  0.59723986  0.75118473  0.39912155    -0.10590
H994        H  0.56726589  0.78130177  0.42032251     0.09090
H995        H  0.57759437  0.72318239  0.43176553     0.06620
H996        H  0.60755748  0.75092813  0.38805621     0.06470
In997      In  0.62394388  0.87637982  0.62418261     1.36870
C998        C  0.61529289  0.88790008  0.65805198     0.77960
O999        O  0.59396325  0.88157980  0.61826175    -0.60490
O1000       O  0.60310624  0.85320835  0.62017480    -0.51400
C1001       C  0.63192637  0.88926440  0.59059189     0.70630
O1002       O  0.63196946  0.89975849  0.60491563    -0.46250
C1003       C  0.65815651  0.86464328  0.63206677     0.75330
O1004       O  0.61566374  0.89900491  0.64425905    -0.58110
O1005       O  0.64554106  0.85341387  0.62656672    -0.48210
O1006       O  0.61975388  0.87116069  0.65450481    -0.54550
C1007       C  0.58958628  0.86451279  0.61748423     0.85510
O1008       O  0.62740434  0.87250571  0.59349435    -0.56440
O1009       O  0.65312333  0.88154501  0.63320055    -0.59730
In1010     In  0.62368579  0.87581792  0.37414560     1.36870
C1011       C  0.61236834  0.91002399  0.36580498     0.77960
O1012       O  0.61789480  0.88397819  0.40349137    -0.60490
O1013       O  0.64643891  0.87990786  0.39556374    -0.51400
C1014       C  0.61202160  0.84191904  0.38214626     0.70630
O1015       O  0.60069357  0.85467729  0.37713282    -0.46250
C1016       C  0.63495033  0.86710311  0.34010283     0.75330
O1017       O  0.60093103  0.89711453  0.36984657    -0.58110
O1018       O  0.64651918  0.87096927  0.35307493    -0.48210
O1019       O  0.62941091  0.90519151  0.36616700    -0.54550
C1020       C  0.63490145  0.88411031  0.40842666     0.85510
O1021       O  0.62900996  0.84663428  0.38306462    -0.56440
O1022       O  0.61795422  0.86786335  0.34483200    -0.59730
C1023       C  0.65796567  0.23453486  0.34090303     0.03510
C1024       C  0.65102500  0.25163937  0.34807579    -0.12640
C1025       C  0.65860853  0.26882112  0.34215896     0.01010
C1026       C  0.67279118  0.26865234  0.32862603    -0.11170
C1027       C  0.68000148  0.25184646  0.32180668     0.03500
C1028       C  0.67278648  0.23489664  0.32803639    -0.10590
H1029       H  0.63985155  0.25157951  0.35822523     0.09090
H1030       H  0.67841795  0.28167100  0.32339695     0.06620
H1031       H  0.67869533  0.22196817  0.32269013     0.06470
C1032       C  0.76232167  0.23514170  0.24944071     0.03510
C1033       C  0.75048477  0.23694558  0.26493269    -0.12640
C1034       C  0.73845727  0.25236079  0.26658426     0.01010
C1035       C  0.73932212  0.26667155  0.25327247    -0.11170
C1036       C  0.75052290  0.26486980  0.23719352     0.03500
C1037       C  0.76135633  0.24851640  0.23515874    -0.10590
H1038       H  0.75055050  0.22632647  0.27565754     0.09090
H1039       H  0.73101442  0.27913347  0.25558865     0.06620
H1040       H  0.76914961  0.24592234  0.22249320     0.06470
C1041       C  0.84112944  0.15802690  0.23245906     0.03510
C1042       C  0.82727458  0.17199853  0.23274367    -0.12640
C1043       C  0.82031264  0.17891395  0.24959156     0.01010
C1044       C  0.82758750  0.17245031  0.26650953    -0.11170
C1045       C  0.84211773  0.15915946  0.26679212     0.03500
C1046       C  0.84866062  0.15174049  0.24964278    -0.10590
H1047       H  0.82168939  0.17752234  0.21977150     0.09090
H1048       H  0.82198967  0.17796127  0.27949040     0.06620
H1049       H  0.85952062  0.14118068  0.24970284     0.06470
C1050       C  0.73252293  0.34117887  0.15625337     0.03510
C1051       C  0.74939130  0.35010540  0.15153041    -0.12640
C1052       C  0.76616500  0.34564562  0.16091070     0.01010
C1053       C  0.76582129  0.33237813  0.17529088    -0.11170
C1054       C  0.74924178  0.32306085  0.18007862     0.03500
C1055       C  0.73276013  0.32744220  0.17022470    -0.10590
H1056       H  0.74948026  0.36049705  0.14054782     0.09090
H1057       H  0.77871035  0.32903929  0.18250475     0.06620
H1058       H  0.71994616  0.32026967  0.17348558     0.06470
In1059     In  0.12524975  0.87671582  0.62525767     1.36870
C1060       C  0.09074865  0.88742636  0.63366939     0.77960
O1061       O  0.11820689  0.88180224  0.59559904    -0.60490
O1062       O  0.12209235  0.85351852  0.60396646    -0.51400
C1063       C  0.15911656  0.88935496  0.61803432     0.70630
O1064       O  0.14501763  0.90016529  0.61904757    -0.46250
C1065       C  0.13312771  0.86553155  0.65938346     0.75330
O1066       O  0.10337827  0.89911279  0.62948250    -0.58110
O1067       O  0.12959792  0.85403491  0.64626341    -0.48210
O1068       O  0.09593138  0.87052929  0.63343069    -0.54550
C1069       C  0.11832725  0.86482370  0.59081425     0.85510
O1070       O  0.15586005  0.87230821  0.62110258    -0.56440
O1071       O  0.13261200  0.88259248  0.65478277    -0.59730
C1072       C  0.00003019  0.73676378  0.48648385     0.03510
C1073       C  0.01368250  0.75086906  0.48608707    -0.12640
C1074       C  0.01407108  0.76533748  0.49946267     0.01010
C1075       C  0.00040498  0.76525213  0.51362180    -0.11170
C1076       C  0.98628951  0.75167267  0.51425350     0.03500
C1077       C  0.98629485  0.73758793  0.50048790    -0.10590
H1078       H  0.02412292  0.75044675  0.47536518     0.09090
H1079       H  0.00083671  0.77572327  0.52438274     0.06620
H1080       H  0.97559485  0.72704947  0.50075623     0.06470
C1081       C  0.90847214  0.73343975  0.59377212     0.03510
C1082       C  0.92468163  0.73453022  0.58287612    -0.12640
C1083       C  0.92903106  0.75073629  0.57281702     0.01010
C1084       C  0.91840767  0.76696196  0.57650931    -0.11170
C1085       C  0.90372851  0.76699259  0.58958874     0.03500
C1086       C  0.89824748  0.74986168  0.59755636    -0.10590
H1087       H  0.93358913  0.72233465  0.58209880     0.09090
H1088       H  0.92160817  0.77984262  0.56945012     0.06620
H1089       H  0.88597855  0.74923693  0.60637974     0.06470
C1090       C  0.09067665  0.84651779  0.48316134     0.03510
C1091       C  0.09998968  0.85099581  0.49993468    -0.12640
C1092       C  0.09604629  0.84123717  0.51648508     0.01010
C1093       C  0.08287343  0.82677289  0.51599022    -0.11170
C1094       C  0.07217225  0.82309069  0.49985282     0.03500
C1095       C  0.07624989  0.83325077  0.48353449    -0.10590
H1096       H  0.11031944  0.86202673  0.50013593     0.09090
H1097       H  0.08081930  0.81869256  0.52848323     0.06620
H1098       H  0.06845800  0.83072151  0.47083005     0.06470
C1099       C  0.98324334  0.66157503  0.40338322     0.03510
C1100       C  0.98285819  0.67494459  0.41779393    -0.12640
C1101       C  0.99854141  0.67792373  0.42933863     0.01010
C1102       C  0.01484385  0.66749734  0.42562584    -0.11170
C1103       C  0.01655687  0.65641716  0.40947360     0.03500
C1104       C  0.00042858  0.65315187  0.39857129    -0.10590
H1105       H  0.97011852  0.68275023  0.41995630     0.09090
H1106       H  0.02666291  0.66834694  0.43505604     0.06620
H1107       H  0.00111387  0.64437718  0.38624532     0.06470
In1108     In  0.87385859  0.87583739  0.62459629     1.36870
C1109       C  0.90818077  0.88398055  0.63614750     0.77960
O1110       O  0.88059259  0.84590153  0.62930722    -0.60490
O1111       O  0.87793586  0.85517622  0.60111930    -0.51400
C1112       C  0.83985880  0.86759146  0.63645808     0.70630
O1113       O  0.85327930  0.87067309  0.64773719    -0.46250
C1114       C  0.86510184  0.91000284  0.61347212     0.75330
O1115       O  0.89503874  0.88048521  0.64751596    -0.58110
O1116       O  0.86948658  0.89716060  0.60196773    -0.48210
O1117       O  0.90354553  0.88309126  0.61911240    -0.54550
C1118       C  0.88104397  0.84163473  0.61215042     0.85510
O1119       O  0.84409205  0.86889950  0.61936215    -0.56440
O1120       O  0.86531152  0.90515751  0.63044396    -0.59730
In1121     In  0.87434048  0.12624563  0.37551414     1.36870
C1122       C  0.90847387  0.11374775  0.36855286     0.77960
O1123       O  0.86900960  0.12090743  0.34537546    -0.60490
O1124       O  0.86959453  0.14927049  0.35458891    -0.51400
C1125       C  0.84052897  0.11344128  0.38256610     0.70630
O1126       O  0.85490843  0.10301324  0.38325677    -0.46250
C1127       C  0.88039392  0.13889487  0.40986054     0.75330
O1128       O  0.89435354  0.10308236  0.36829894    -0.58110
O1129       O  0.87831832  0.14987342  0.39607220    -0.48210
O1130       O  0.90513232  0.13055740  0.37281909    -0.54550
C1131       C  0.86725580  0.13793312  0.34107197     0.85510
O1132       O  0.84349835  0.13016125  0.37791635    -0.56440
O1133       O  0.87906976  0.12175484  0.40582023    -0.59730
C1134       C  0.90746459  0.98425698  0.15686039     0.03510
C1135       C  0.90004410  0.00122373  0.15028261    -0.12640
C1136       C  0.90714293  0.01822997  0.15708099     0.01010
C1137       C  0.92118468  0.01816606  0.17078120    -0.11170
C1138       C  0.92889739  0.00129150  0.17724702     0.03500
C1139       C  0.92219156  0.98440022  0.16980994    -0.10590
H1140       H  0.88891599  0.00119283  0.13995644     0.09090
H1141       H  0.92607099  0.03138075  0.17636134     0.06620
H1142       H  0.92836879  0.97122097  0.17404051     0.06470
C1143       C  0.08960792  0.90895538  0.23183231     0.03510
C1144       C  0.09587950  0.90090675  0.24876206    -0.12640
C1145       C  0.08941766  0.90785940  0.26613504     0.01010
C1146       C  0.07667549  0.92285962  0.26627170    -0.11170
C1147       C  0.07024851  0.93062083  0.24960169     0.03500
C1148       C  0.07697929  0.92400898  0.23254542    -0.10590
H1149       H  0.10529588  0.88901949  0.24835901     0.09090
H1150       H  0.07150357  0.92844822  0.27939575     0.06620
H1151       H  0.07228000  0.93070103  0.21979540     0.06470
C1152       C  0.98718519  0.00257049  0.23333918     0.03510
C1153       C  0.00003248  0.98785384  0.23467120    -0.12640
C1154       C  0.01263695  0.98706626  0.24967648     0.01010
C1155       C  0.01128650  0.00039661  0.26400844    -0.11170
C1156       C  0.99898713  0.01575562  0.26253143     0.03500
C1157       C  0.98735313  0.01694770  0.24665862    -0.10590
H1158       H  0.00037484  0.97724117  0.22382257     0.09090
H1159       H  0.01995428  0.99866027  0.27631675     0.06620
H1160       H  0.97818676  0.02881187  0.24457019     0.06470
C1161       C  0.01623805  0.09613624  0.33944175     0.03510
C1162       C  0.99944468  0.10066801  0.34889073    -0.12640
C1163       C  0.98262713  0.09132091  0.34429205     0.01010
C1164       C  0.98340465  0.07635662  0.33153757    -0.11170
C1165       C  0.99949858  0.07270780  0.32098573     0.03500
C1166       C  0.01545139  0.08348343  0.32441741    -0.10590
H1167       H  0.99946190  0.11133281  0.35960244     0.09090
H1168       H  0.97110978  0.06779167  0.32953042     0.06620
H1169       H  0.02762459  0.08183649  0.31559936     0.06470
In1170     In  0.12443148  0.12684256  0.37451940     1.36870
C1171       C  0.09037157  0.12013610  0.36183977     0.77960
O1172       O  0.13024420  0.09686749  0.36911675    -0.60490
O1173       O  0.12884234  0.10573934  0.39752600    -0.51400
C1174       C  0.15854288  0.13447378  0.36247804     0.70630
O1175       O  0.14474858  0.13276683  0.35139177    -0.46250
C1176       C  0.11778653  0.16097508  0.38702014     0.75330
O1177       O  0.10446378  0.12041495  0.35110860    -0.58110
O1178       O  0.11997464  0.14723149  0.39802263    -0.48210
O1179       O  0.09370792  0.12375248  0.37880118    -0.54550
C1180       C  0.13151999  0.09236244  0.38611012     0.85510
O1181       O  0.15468008  0.13198943  0.37951347    -0.56440
O1182       O  0.11917149  0.15698518  0.36984608    -0.59730
C1183       C  0.59121808  0.23363513  0.90801164     0.03510
C1184       C  0.57598874  0.23419753  0.92037847    -0.12640
C1185       C  0.56958797  0.25113416  0.92805699     0.01010
C1186       C  0.57755675  0.26788513  0.92180682    -0.11170
C1187       C  0.59155418  0.26778666  0.90813187     0.03500
C1188       C  0.59859467  0.25063721  0.90140569    -0.10590
H1189       H  0.56912646  0.22127469  0.92404682     0.09090
H1190       H  0.57290743  0.28115331  0.92752012     0.06620
H1191       H  0.60998810  0.25057627  0.89144156     0.06470
C1192       C  0.49844127  0.26663538  0.01256995     0.03510
C1193       C  0.51195968  0.26675187  0.99845619    -0.12640
C1194       C  0.51208632  0.25269065  0.98481170     0.01010
C1195       C  0.49861215  0.23853984  0.98527423    -0.11170
C1196       C  0.48487661  0.23840107  0.99928233     0.03500
C1197       C  0.48498748  0.25248613  0.01300486    -0.10590
H1198       H  0.52246614  0.27763897  0.99821157     0.09090
H1199       H  0.49869986  0.22780979  0.97453578     0.06620
H1200       H  0.47488510  0.25228266  0.02427745     0.06470
C1201       C  0.48255800  0.34335206  0.09260475     0.03510
C1202       C  0.48211067  0.32970396  0.07855080    -0.12640
C1203       C  0.49868215  0.32350633  0.07003472     0.01010
C1204       C  0.51581582  0.33075821  0.07630878    -0.11170
C1205       C  0.51668047  0.34322106  0.09149256     0.03500
C1206       C  0.49983529  0.34994937  0.09928394    -0.10590
H1207       H  0.46873767  0.32396951  0.07433885     0.09090
H1208       H  0.52861831  0.32666446  0.06931283     0.06620
H1209       H  0.50011268  0.35999809  0.11064691     0.06470
C1210       C  0.40727464  0.16095866  0.98272749     0.03510
C1211       C  0.40114968  0.15329544  0.99981267    -0.12640
C1212       C  0.40946154  0.15883477  0.01685762     0.01010
C1213       C  0.42351964  0.17244111  0.01670374    -0.11170
C1214       C  0.42973299  0.17993676  0.99985885     0.03500
C1215       C  0.42191742  0.17398049  0.98296756    -0.10590
H1216       H  0.38999601  0.14308443  0.99986521     0.09090
H1217       H  0.42952574  0.17739632  0.02973949     0.06620
H1218       H  0.42729952  0.17958577  0.97000907     0.06470
In1219     In  0.37409181  0.12561092  0.87508442     1.36870
C1220       C  0.40843867  0.11445028  0.86712894     0.77960
O1221       O  0.36653608  0.11983325  0.84560604    -0.60490
O1222       O  0.36909536  0.14836071  0.85395858    -0.51400
C1223       C  0.34016478  0.11411911  0.88349012     0.70630
O1224       O  0.35297766  0.10268932  0.87877612    -0.46250
C1225       C  0.38218087  0.13710497  0.90930118     0.75330
O1226       O  0.39542394  0.10290809  0.87053500    -0.58110
O1227       O  0.37877212  0.14850664  0.89611683    -0.48210
O1228       O  0.40361631  0.13143828  0.86796768    -0.54550
C1229       C  0.36560610  0.13680028  0.84089000     0.85510
O1230       O  0.34490328  0.13111244  0.88367718    -0.56440
O1231       O  0.38136165  0.12004957  0.90469602    -0.59730
C1232       C  0.98706576  0.23502831  0.49964193     0.03510
C1233       C  0.00049175  0.23560894  0.48549847    -0.12640
C1234       C  0.01403830  0.24963280  0.48558264     0.01010
C1235       C  0.01429641  0.26300899  0.49990719    -0.11170
C1236       C  0.00074461  0.26251801  0.51400452     0.03500
C1237       C  0.98706389  0.24856135  0.51381562    -0.10590
H1238       H  0.00038873  0.22518736  0.47445044     0.09090
H1239       H  0.02484461  0.27385947  0.49996253     0.06620
H1240       H  0.97650905  0.24819960  0.52467274     0.06470
C1241       C  0.01687602  0.34120462  0.59137836     0.03510
C1242       C  0.01664829  0.32699530  0.57781323    -0.12640
C1243       C  0.99972996  0.31977405  0.57101692     0.01010
C1244       C  0.98286102  0.32690306  0.57807842    -0.11170
C1245       C  0.98261340  0.34211513  0.59052010     0.03500
C1246       C  0.99976912  0.34900932  0.59745619    -0.10590
H1247       H  0.02979491  0.32173231  0.57235609     0.09090
H1248       H  0.96978696  0.32051362  0.57391795     0.06620
H1249       H  0.99981247  0.36030299  0.60757663     0.06470
C1250       C  0.90911256  0.15939102  0.51776387     0.03510
C1251       C  0.89942935  0.15446703  0.50119123    -0.12640
C1252       C  0.90546906  0.16113898  0.48364510     0.01010
C1253       C  0.92087910  0.17318433  0.48294893    -0.11170
C1254       C  0.93036139  0.17839250  0.49923301     0.03500
C1255       C  0.92498948  0.17081117  0.51636114    -0.10590
H1256       H  0.88708489  0.14578090  0.50193833     0.09090
H1257       H  0.92572178  0.17842467  0.46961536     0.06620
H1258       H  0.93307597  0.17423224  0.52870550     0.06470
C1259       C  0.09029465  0.26894432  0.40769835     0.03510
C1260       C  0.09975881  0.25222070  0.40293167    -0.12640
C1261       C  0.09338035  0.23483497  0.40956973     0.01010
C1262       C  0.07799418  0.23445061  0.42168305    -0.11170
C1263       C  0.06897407  0.25093025  0.42714151     0.03500
C1264       C  0.07480139  0.26797769  0.41973478    -0.10590
H1265       H  0.11227874  0.25270994  0.39448331     0.09090
H1266       H  0.07289595  0.22122207  0.42692177     0.06620
H1267       H  0.06744139  0.28060214  0.42379483     0.06470
In1268     In  0.87497820  0.62585753  0.62569078     1.36870
C1269       C  0.88684345  0.65971145  0.61783694     0.77960
O1270       O  0.88038276  0.61895705  0.59589468    -0.60490
O1271       O  0.85196131  0.62130176  0.60462249    -0.51400
C1272       C  0.88614087  0.59154743  0.63393876     0.70630
O1273       O  0.89769411  0.60467385  0.63106018    -0.46250
C1274       C  0.86348384  0.63420737  0.65980466     0.75330
O1275       O  0.89810005  0.64604801  0.61956227    -0.58110
O1276       O  0.85210029  0.63090423  0.64652878    -0.48210
O1277       O  0.86977944  0.65600584  0.62037511    -0.54550
C1278       C  0.86331387  0.61799866  0.59136470     0.85510
O1279       O  0.86913685  0.59624214  0.63249942    -0.56440
O1280       O  0.88058538  0.63303647  0.65540595    -0.59730
In1281     In  0.87470526  0.37529024  0.62567853     1.36870
C1282       C  0.88236001  0.40941896  0.63781728     0.77960
O1283       O  0.90467844  0.36894434  0.63116009    -0.60490
O1284       O  0.89565728  0.37028276  0.60275118    -0.51400
C1285       C  0.86697225  0.34092669  0.63679797     0.70630
O1286       O  0.86980260  0.35414900  0.64836114    -0.46250
C1287       C  0.84041138  0.38319534  0.61381022     0.75330
O1288       O  0.87955172  0.39595327  0.64898115    -0.58110
O1289       O  0.85398500  0.38090133  0.60257892    -0.48210
O1290       O  0.88100881  0.40518530  0.62070104    -0.54550
C1291       C  0.90908464  0.36755060  0.61411797     0.85510
O1292       O  0.86831996  0.34553327  0.61982042    -0.56440
O1293       O  0.84462132  0.38128576  0.63086896    -0.59730
C1294       C  0.74898669  0.48971750  0.51575468     0.03510
C1295       C  0.73560437  0.48887605  0.50147178    -0.12640
C1296       C  0.73590267  0.50188689  0.48682813     0.01010
C1297       C  0.75014139  0.51536447  0.48641262    -0.11170
C1298       C  0.76369170  0.51624968  0.50066769     0.03500
C1299       C  0.76274617  0.50352226  0.51550767    -0.10590
H1300       H  0.72521802  0.47788411  0.50162752     0.09090
H1301       H  0.75062808  0.52522360  0.47496792     0.06620
H1302       H  0.77265295  0.50428998  0.52697623     0.06470
C1303       C  0.84296637  0.59228469  0.48268105     0.03510
C1304       C  0.84937246  0.59962738  0.49992439    -0.12640
C1305       C  0.84143302  0.59368052  0.51696525     0.01010
C1306       C  0.82747380  0.57995471  0.51655981    -0.11170
C1307       C  0.82094721  0.57279305  0.49960841     0.03500
C1308       C  0.82844915  0.57909832  0.48279702    -0.10590
H1309       H  0.86045261  0.60987771  0.50012027     0.09090
H1310       H  0.82158273  0.57478897  0.52949799     0.06620
H1311       H  0.82298227  0.57355509  0.46976594     0.06470
C1312       C  0.73260308  0.41004048  0.59106810     0.03510
C1313       C  0.74974813  0.40210532  0.59690819    -0.12640
C1314       C  0.76692033  0.40973591  0.59092086     0.01010
C1315       C  0.76657840  0.42582235  0.57971317    -0.11170
C1316       C  0.74966635  0.43342299  0.57322864     0.03500
C1317       C  0.73280271  0.42552720  0.57910187    -0.10590
H1318       H  0.74966673  0.38980996  0.60569826     0.09090
H1319       H  0.77958759  0.43248497  0.57587301     0.06620
H1320       H  0.71969607  0.43137368  0.57422008     0.06470
C1321       C  0.65925629  0.51915965  0.40772714     0.03510
C1322       C  0.65300815  0.50203110  0.40010797    -0.12640
C1323       C  0.66032198  0.48485742  0.40662260     0.01010
C1324       C  0.67379646  0.48507965  0.42094820    -0.11170
C1325       C  0.68026363  0.50193201  0.42831450     0.03500
C1326       C  0.67313529  0.51885488  0.42168209    -0.10590
H1327       H  0.64247171  0.50207009  0.38923315     0.09090
H1328       H  0.67928349  0.47208509  0.42651735     0.06620
H1329       H  0.67844838  0.53181779  0.42747141     0.06470
In1330     In  0.62437894  0.62680588  0.37346634     1.36870
C1331       C  0.61637287  0.66067881  0.38563472     0.77960
O1332       O  0.65374414  0.63419498  0.37972344    -0.60490
O1333       O  0.64581915  0.63135639  0.35102622    -0.51400
C1334       C  0.63345118  0.59284576  0.38507339     0.70630
O1335       O  0.63026438  0.60621719  0.39635894    -0.46250
C1336       C  0.59002138  0.61917057  0.36168404     0.75330
O1337       O  0.61748627  0.64685340  0.39664838    -0.58110
O1338       O  0.60302493  0.62328783  0.35035213    -0.48210
O1339       O  0.61956518  0.65712709  0.36863836    -0.54550
C1340       C  0.65868911  0.63500302  0.36279575     0.85510
O1341       O  0.63172261  0.59703497  0.36798610    -0.56440
O1342       O  0.59486423  0.61901737  0.37867436    -0.59730
In1343     In  0.37437557  0.62581889  0.37507493     1.36870
C1344       C  0.34030902  0.61431331  0.38331573     0.77960
O1345       O  0.37974187  0.62003449  0.40513813    -0.60490
O1346       O  0.38067591  0.64847947  0.39581351    -0.51400
C1347       C  0.40834186  0.61351995  0.36699985     0.70630
O1348       O  0.39438207  0.60264666  0.36765040    -0.46250
C1349       C  0.36613952  0.63812663  0.34109343     0.75330
O1350       O  0.35361342  0.60293984  0.38006067    -0.58110
O1351       O  0.36906686  0.64923128  0.35467112    -0.48210
O1352       O  0.34465514  0.63138107  0.38220998    -0.54550
C1353       C  0.38242648  0.63701136  0.40922029     0.85510
O1354       O  0.40492097  0.63039406  0.37092509    -0.56440
O1355       O  0.36766570  0.62103576  0.34514208    -0.59730
C1356       C  0.40686039  0.48429973  0.16023031     0.03510
C1357       C  0.42033404  0.48470355  0.17451584    -0.12640
C1358       C  0.42847320  0.50157798  0.17996743     0.01010
C1359       C  0.42313515  0.51822200  0.17132459    -0.11170
C1360       C  0.40976690  0.51820480  0.15693425     0.03500
C1361       C  0.40162890  0.50112388  0.15138724    -0.10590
H1362       H  0.42485159  0.47181993  0.18110767     0.09090
H1363       H  0.42926932  0.53124920  0.17604609     0.06620
H1364       H  0.39130297  0.50091130  0.14026360     0.06470
C1365       C  0.48613439  0.50165045  0.23604962     0.03510
C1366       C  0.49963542  0.48739372  0.23564993    -0.12640
C1367       C  0.51324203  0.48629445  0.24968003     0.01010
C1368       C  0.51349518  0.49947792  0.26415878    -0.11170
C1369       C  0.50024794  0.51392125  0.26447211     0.03500
C1370       C  0.48650403  0.51495090  0.25049792    -0.10590
H1371       H  0.49938414  0.47696240  0.22461811     0.09090
H1372       H  0.52414773  0.49868116  0.27495951     0.06620
H1373       H  0.47621594  0.52613097  0.25081524     0.06470
C1374       C  0.48215258  0.59132205  0.34130011     0.03510
C1375       C  0.49869688  0.60083411  0.34654123    -0.12640
C1376       C  0.51617065  0.59523502  0.33922982     0.01010
C1377       C  0.51704005  0.58049945  0.32634789    -0.11170
C1378       C  0.50091398  0.57058226  0.32156562     0.03500
C1379       C  0.48375732  0.57562327  0.32951801    -0.10590
H1380       H  0.49807671  0.61265044  0.35602095     0.09090
H1381       H  0.53041697  0.57633139  0.32049549     0.06620
H1382       H  0.47155930  0.56736087  0.32614137     0.06470
C1383       C  0.59184103  0.40993299  0.26686359     0.03510
C1384       C  0.57662195  0.42244020  0.26578905    -0.12640
C1385       C  0.57012321  0.42917289  0.24858905     0.01010
C1386       C  0.57824567  0.42251356  0.23208896    -0.11170
C1387       C  0.59336875  0.41006785  0.23268773     0.03500
C1388       C  0.60044561  0.40404089  0.25004632    -0.10590
H1389       H  0.56977512  0.42715422  0.27844573     0.09090
H1390       H  0.57277882  0.42697289  0.21866191     0.06620
H1391       H  0.61249516  0.39483074  0.25030973     0.06470
In1392     In  0.37462964  0.37638990  0.12528805     1.36870
C1393       C  0.40881859  0.36697078  0.11507131     0.77960
O1394       O  0.38251136  0.40575042  0.11970957    -0.60490
O1395       O  0.37991139  0.39745767  0.14818439    -0.51400
C1396       C  0.34053259  0.38426650  0.11283815     0.70630
O1397       O  0.35400261  0.38080976  0.10176830    -0.46250
C1398       C  0.36575510  0.34277031  0.13691670     0.75330
O1399       O  0.39662626  0.37229267  0.10324242    -0.58110
O1400       O  0.36700142  0.35652018  0.14812300    -0.48210
O1401       O  0.40340921  0.36670058  0.13188378    -0.54550
C1402       C  0.38358295  0.41043981  0.13670972     0.85510
O1403       O  0.34477881  0.38356680  0.12996972    -0.56440
O1404       O  0.36929927  0.34627387  0.11998649    -0.59730
In1405     In  0.37500272  0.62616195  0.12506958     1.36870
C1406       C  0.38636696  0.59189691  0.13304654     0.77960
O1407       O  0.38084914  0.63347998  0.15471691    -0.60490
O1408       O  0.35231285  0.63135007  0.14609038    -0.51400
C1409       C  0.38614754  0.66026437  0.11648680     0.70630
O1410       O  0.39770956  0.64714149  0.11985929    -0.46250
C1411       C  0.36300309  0.61748751  0.09117997     0.75330
O1412       O  0.39788011  0.60495612  0.12970178    -0.58110
O1413       O  0.35179906  0.62088938  0.10453929    -0.48210
O1414       O  0.36934619  0.59667842  0.13227059    -0.54550
C1415       C  0.36379723  0.63467579  0.15926288     0.85510
O1416       O  0.36913508  0.65567301  0.11764037    -0.56440
O1417       O  0.38014768  0.61878102  0.09538325    -0.59730
C1418       C  0.34011163  0.59235208  0.01741241     0.03510
C1419       C  0.32628734  0.57847856  0.01716054    -0.12640
C1420       C  0.31945795  0.57148031  0.00026787     0.01010
C1421       C  0.32654003  0.57802699  0.98338259    -0.11170
C1422       C  0.34092277  0.59133715  0.98312150     0.03500
C1423       C  0.34758760  0.59858191  0.00028033    -0.10590
H1424       H  0.32072186  0.57309613  0.03015259     0.09090
H1425       H  0.32084099  0.57258579  0.97040684     0.06620
H1426       H  0.35849954  0.60899654  0.00032196     0.06470
C1427       C  0.15615108  0.51800599  0.90889619     0.03510
C1428       C  0.14882597  0.50085703  0.90251337    -0.12640
C1429       C  0.15696641  0.48375826  0.90832961     0.01010
C1430       C  0.17208894  0.48432710  0.92096508    -0.11170
C1431       C  0.17883229  0.50129205  0.92782460     0.03500
C1432       C  0.17110805  0.51807825  0.92157452    -0.10590
H1433       H  0.13692146  0.50095437  0.89312378     0.09090
H1434       H  0.17880983  0.47153664  0.92556870     0.06620
H1435       H  0.17656934  0.53122841  0.92678733     0.06470
C1436       C  0.26287896  0.51442614  0.00001024     0.03510
C1437       C  0.24918903  0.51417583  0.98587926    -0.12640
C1438       C  0.23525149  0.50038797  0.98558774     0.01010
C1439       C  0.23534057  0.48656296  0.99948022    -0.11170
C1440       C  0.24873946  0.48691690  0.01375818     0.03500
C1441       C  0.26234219  0.50087186  0.01410881    -0.10590
H1442       H  0.24935923  0.52477653  0.97510439     0.09090
H1443       H  0.22514463  0.47539872  0.99915207     0.06620
H1444       H  0.27238657  0.50119965  0.02548618     0.06470
C1445       C  0.26601373  0.40828852  0.09052559     0.03510
C1446       C  0.24887294  0.40119015  0.09719069    -0.12640
C1447       C  0.23175013  0.40873497  0.09086372     0.01010
C1448       C  0.23184816  0.42306485  0.07756339    -0.11170
C1449       C  0.24869590  0.43050902  0.07107357     0.03500
C1450       C  0.26564575  0.42322245  0.07781511    -0.10590
H1451       H  0.24874566  0.38953201  0.10679117     0.09090
H1452       H  0.21866721  0.42834777  0.07218032     0.06620
H1453       H  0.27868687  0.42927217  0.07312344     0.06470
C1454       C  0.26231569  0.73766543  0.24964863     0.03510
C1455       C  0.24849929  0.73791026  0.26349299    -0.12640
C1456       C  0.23423880  0.75137138  0.26297043     0.01010
C1457       C  0.23383780  0.76469756  0.24869487    -0.11170
C1458       C  0.24780200  0.76465480  0.23500026     0.03500
C1459       C  0.26197881  0.75108914  0.23545019    -0.10590
H1460       H  0.24872665  0.72754747  0.27451908     0.09090
H1461       H  0.22286595  0.77521090  0.24839942     0.06620
H1462       H  0.27275645  0.75101334  0.22480248     0.06470
C1463       C  0.15841526  0.76844422  0.34250548     0.03510
C1464       C  0.15058549  0.75139998  0.34844716    -0.12640
C1465       C  0.15626003  0.73433836  0.34024621     0.01010
C1466       C  0.16995454  0.73452425  0.32622931    -0.11170
C1467       C  0.17765257  0.75134498  0.32004084     0.03500
C1468       C  0.17184006  0.76818567  0.32821602    -0.10590
H1469       H  0.14013316  0.75140655  0.35937723     0.09090
H1470       H  0.17492364  0.72144488  0.32033481     0.06620
H1471       H  0.17755980  0.78121928  0.32313670     0.06470
C1472       C  0.23263383  0.84249646  0.15679699     0.03510
C1473       C  0.24974336  0.85004800  0.15086977    -0.12640
C1474       C  0.26675670  0.84292098  0.15794015     0.01010
C1475       C  0.26630911  0.82793932  0.17055787    -0.11170
C1476       C  0.24931345  0.82121988  0.17760401     0.03500
C1477       C  0.23251947  0.82854257  0.17046521    -0.10590
H1478       H  0.24977682  0.86133794  0.14081295     0.09090
H1479       H  0.27933084  0.82144456  0.17483872     0.06620
H1480       H  0.21919951  0.82361727  0.17567056     0.06470
C1481       C  0.34167678  0.66067764  0.26708386     0.03510
C1482       C  0.34874267  0.65355595  0.25010654    -0.12640
C1483       C  0.34163423  0.66007938  0.23294490     0.01010
C1484       C  0.32803787  0.67426128  0.23290928    -0.11170
C1485       C  0.32022086  0.68093288  0.24963553     0.03500
C1486       C  0.32707602  0.67386279  0.26663474    -0.10590
H1487       H  0.35966648  0.64301553  0.25022437     0.09090
H1488       H  0.32371822  0.68014210  0.21965295     0.06620
H1489       H  0.32094814  0.67847575  0.27970304     0.06470
In1490     In  0.37358413  0.62503555  0.87519985     1.36870
C1491       C  0.33979640  0.63731870  0.86673672     0.77960
O1492       O  0.38023287  0.62997046  0.84540514    -0.60490
O1493       O  0.37826080  0.60171281  0.85448665    -0.51400
C1494       C  0.40768966  0.63660316  0.88381058     0.70630
O1495       O  0.39428291  0.64791906  0.88082779    -0.46250
C1496       C  0.36525907  0.61347351  0.90914237     0.75330
O1497       O  0.35366907  0.64826649  0.86797167    -0.58110
O1498       O  0.36826838  0.60215157  0.89575279    -0.48210
O1499       O  0.34320436  0.62038203  0.87030489    -0.54550
C1500       C  0.38122586  0.61288302  0.84107009     0.85510
O1501       O  0.40342792  0.61954460  0.88227134    -0.56440
O1502       O  0.36670647  0.63056142  0.90493357    -0.59730
In1503     In  0.62451411  0.37527096  0.87438217     1.36870
C1504       C  0.63621371  0.36590474  0.84066913     0.77960
O1505       O  0.63035220  0.34674726  0.88518025    -0.60490
O1506       O  0.60212603  0.35338920  0.87746845    -0.51400
C1507       C  0.63613280  0.38371843  0.90843795     0.70630
O1508       O  0.64752716  0.37952038  0.89544267    -0.46250
C1509       C  0.61270031  0.40932298  0.86553660     0.75330
O1510       O  0.64741923  0.37212872  0.85299211    -0.58110
O1511       O  0.60144747  0.39675840  0.87096436    -0.48210
O1512       O  0.61938016  0.36445575  0.84579318    -0.54550
C1513       C  0.61358760  0.34133208  0.88382946     0.85510
O1514       O  0.61909327  0.38379568  0.90362462    -0.56440
O1515       O  0.62961765  0.40422304  0.86469058    -0.59730
In1516     In  0.62418010  0.62619182  0.87421986     1.36870
C1517       C  0.63165181  0.66048156  0.86269945     0.77960
O1518       O  0.59395716  0.63204035  0.86947814    -0.60490
O1519       O  0.60392792  0.63199996  0.89758548    -0.51400
C1520       C  0.61702209  0.59187056  0.86181644     0.70630
O1521       O  0.61952763  0.60546770  0.85074406    -0.46250
C1522       C  0.65823466  0.61893811  0.88676453     0.75330
O1523       O  0.62912715  0.64706004  0.85128584    -0.58110
O1524       O  0.64409331  0.61907556  0.89745031    -0.48210
O1525       O  0.63000650  0.65612982  0.87972155    -0.54550
C1526       C  0.59012130  0.63416556  0.88659291     0.85510
O1527       O  0.61845461  0.59606036  0.87891583    -0.56440
O1528       O  0.65490048  0.62283182  0.86987982    -0.59730
C1529       C  0.59299860  0.51752932  0.83949604     0.03510
C1530       C  0.59907222  0.50041522  0.84732930    -0.12640
C1531       C  0.59048104  0.48347780  0.84205909     0.01010
C1532       C  0.57609233  0.48363357  0.82873705    -0.11170
C1533       C  0.57039822  0.50040706  0.82052330     0.03500
C1534       C  0.57866536  0.51723101  0.82599831    -0.10590
H1535       H  0.61047103  0.50019535  0.85734118     0.09090
H1536       H  0.56966161  0.47061712  0.82438394     0.06620
H1537       H  0.57368565  0.53015086  0.81982698     0.06470
C1538       C  0.51775436  0.40914843  0.65923257     0.03510
C1539       C  0.50091637  0.40065739  0.65313703    -0.12640
C1540       C  0.48345358  0.40763181  0.65922576     0.01010
C1541       C  0.48282582  0.42255331  0.67192334    -0.11170
C1542       C  0.49933341  0.43078434  0.67824998     0.03500
C1543       C  0.51653823  0.42463682  0.67133883    -0.10590
H1544       H  0.50128436  0.38883280  0.64365488     0.09090
H1545       H  0.46945651  0.42762605  0.67704894     0.06620
H1546       H  0.52896382  0.43218503  0.67549518     0.06470
C1547       C  0.51338629  0.50149113  0.76355089     0.03510
C1548       C  0.51344538  0.48824120  0.74904441    -0.12640
C1549       C  0.49865503  0.48754085  0.73597554     0.01010
C1550       C  0.48394034  0.50053759  0.73764024    -0.11170
C1551       C  0.48459186  0.51464539  0.75120764     0.03500
C1552       C  0.49916804  0.51498209  0.76426384    -0.10590
H1553       H  0.52494073  0.47836429  0.74816816     0.09090
H1554       H  0.47199595  0.49994209  0.72831767     0.06620
H1555       H  0.49940569  0.52571399  0.77500365     0.06470
C1556       C  0.40832433  0.59352565  0.73299453     0.03510
C1557       C  0.42284705  0.58032822  0.73333909    -0.12640
C1558       C  0.42820147  0.57200174  0.75018101     0.01010
C1559       C  0.41958288  0.57740626  0.76685473    -0.11170
C1560       C  0.40520709  0.59082386  0.76691451     0.03500
C1561       C  0.39938377  0.59868016  0.74977637    -0.10590
H1562       H  0.42952916  0.57605111  0.72040677     0.09090
H1563       H  0.42434410  0.57126690  0.77987386     0.06620
H1564       H  0.38795095  0.60866752  0.74943281     0.06470
In1565     In  0.62570898  0.37587418  0.62521906     1.36870
C1566       C  0.65955518  0.38770469  0.61680200     0.77960
O1567       O  0.63006078  0.38056559  0.65566769    -0.60490
O1568       O  0.63288278  0.35267391  0.64505661    -0.51400
C1569       C  0.59158661  0.38713845  0.63357375     0.70630
O1570       O  0.60534915  0.39831036  0.63344135    -0.46250
C1571       C  0.61786185  0.36476950  0.59085984     0.75330
O1572       O  0.64585045  0.39894352  0.61838891    -0.58110
O1573       O  0.62037269  0.35323454  0.60412547    -0.48210
O1574       O  0.65596198  0.37079452  0.62008201    -0.54550
C1575       C  0.63374835  0.36363949  0.65902335     0.85510
O1576       O  0.59528811  0.37046320  0.62896921    -0.56440
O1577       O  0.61945554  0.38176321  0.59545109    -0.59730
In1578     In  0.12425273  0.87687630  0.37452802     1.36870
C1579       C  0.13628008  0.84263823  0.36700249     0.77960
O1580       O  0.12957595  0.87034283  0.40433973    -0.60490
O1581       O  0.10115109  0.87239095  0.39531243    -0.51400
C1582       C  0.13553945  0.91111042  0.38264819     0.70630
O1583       O  0.14706402  0.89801631  0.37905829    -0.46250
C1584       C  0.11225195  0.88437777  0.34030797     0.75330
O1585       O  0.14750611  0.85605129  0.36996938    -0.58110
O1586       O  0.10108330  0.88141848  0.35374404    -0.48210
O1587       O  0.11915508  0.84699024  0.36809432    -0.54550
C1588       C  0.11247227  0.86949268  0.40872302     0.85510
O1589       O  0.11852666  0.90647698  0.38177191    -0.56440
O1590       O  0.12939095  0.88338876  0.34461412    -0.59730
C1591       C  0.23275817  0.91278673  0.59344828     0.03510
C1592       C  0.24954918  0.90330001  0.59821070    -0.12640
C1593       C  0.26663132  0.90849325  0.58980757     0.01010
C1594       C  0.26621403  0.92145869  0.57516076    -0.11170
C1595       C  0.25026246  0.93231935  0.57164170     0.03500
C1596       C  0.23397564  0.92851315  0.58179355    -0.10590
H1597       H  0.24941667  0.89210042  0.60833019     0.09090
H1598       H  0.27867022  0.92328628  0.56682248     0.06620
H1599       H  0.22194568  0.93759589  0.58026182     0.06470
C1600       C  0.26258110  0.01716330  0.49969275     0.03510
C1601       C  0.26215064  0.00375420  0.51387063    -0.12640
C1602       C  0.25011686  0.98828848  0.51264659     0.01010
C1603       C  0.23851362  0.98665768  0.49681729    -0.11170
C1604       C  0.23748749  0.00099845  0.48351779     0.03500
C1605       C  0.24987135  0.01607102  0.48483722    -0.10590
H1606       H  0.27126258  0.00560547  0.52584330     0.09090
H1607       H  0.23017885  0.97426228  0.49467263     0.06620
H1608       H  0.24971778  0.02690950  0.47429181     0.06470
C1609       C  0.34172490  0.09259990  0.48280957     0.03510
C1610       C  0.32793723  0.07872590  0.48293256    -0.12640
C1611       C  0.31973067  0.07323071  0.49970190     0.01010
C1612       C  0.32532690  0.08136792  0.51654758    -0.11170
C1613       C  0.33896551  0.09540729  0.51683182     0.03500
C1614       C  0.34722924  0.10095423  0.49984027    -0.10590
H1615       H  0.32335521  0.07236455  0.46992722     0.09090
H1616       H  0.31920445  0.07648320  0.52948248     0.06620
H1617       H  0.35789485  0.11167176  0.49986379     0.06470
C1618       C  0.15955844  0.98478228  0.40573614     0.03510
C1619       C  0.15086467  0.00182421  0.40089671    -0.12640
C1620       C  0.15731033  0.01884857  0.40857024     0.01010
C1621       C  0.17260281  0.01852109  0.42095112    -0.11170
C1622       C  0.18079835  0.00158104  0.42622377     0.03500
C1623       C  0.17428715  0.98482414  0.41868686    -0.10590
H1624       H  0.13919857  0.00181625  0.39118590     0.09090
H1625       H  0.17816739  0.03142349  0.42660290     0.06620
H1626       H  0.18059503  0.97174557  0.42310610     0.06470
In1627     In  0.62485651  0.12665060  0.37422754     1.36870
C1628       C  0.61713232  0.09247573  0.36223388     0.77960
O1629       O  0.65473902  0.12015735  0.36905882    -0.60490
O1630       O  0.64588553  0.12256121  0.39741126    -0.51400
C1631       C  0.63294843  0.16060316  0.36236778     0.70630
O1632       O  0.63019695  0.14712344  0.35110431    -0.46250
C1633       C  0.59064046  0.13485827  0.38586699     0.75330
O1634       O  0.61976048  0.10595904  0.35106697    -0.58110
O1635       O  0.60393051  0.13142805  0.39719232    -0.48210
O1636       O  0.61867015  0.09669390  0.37934395    -0.54550
C1637       C  0.65928699  0.11961242  0.38612358     0.85510
O1638       O  0.63120860  0.15649755  0.37943956    -0.56440
O1639       O  0.59507542  0.13384883  0.36880113    -0.59730
C1640       C  0.59168149  0.34275495  0.48296622     0.03510
C1641       C  0.59944042  0.34907381  0.50003513    -0.12640
C1642       C  0.59402678  0.34093761  0.51712434     0.01010
C1643       C  0.58027982  0.32702256  0.51700165    -0.11170
C1644       C  0.57276060  0.32053569  0.50020539     0.03500
C1645       C  0.57851518  0.32823547  0.48327199    -0.10590
H1646       H  0.60960895  0.36025300  0.50005057     0.09090
H1647       H  0.57530692  0.32118979  0.53003761     0.06620
H1648       H  0.57262829  0.32292155  0.47032717     0.06470
C1649       C  0.48649251  0.25172011  0.51351430     0.03510
C1650       C  0.50257994  0.26281876  0.51548198    -0.12640
C1651       C  0.51598896  0.26367912  0.50123419     0.01010
C1652       C  0.51476060  0.25124588  0.48611253    -0.11170
C1653       C  0.49944895  0.23918219  0.48437898     0.03500
C1654       C  0.48496775  0.24025239  0.49755485    -0.10590
H1655       H  0.50490343  0.27089460  0.52805514     0.09090
H1656       H  0.52575869  0.25096483  0.47574068     0.06620
H1657       H  0.47256462  0.23191967  0.49527369     0.06470
C1658       C  0.48225895  0.16092370  0.40688169     0.03510
C1659       C  0.49948111  0.15367061  0.40032689    -0.12640
C1660       C  0.51659587  0.15994836  0.40796837     0.01010
C1661       C  0.51632221  0.17403194  0.42166467    -0.11170
C1662       C  0.49938685  0.18121147  0.42824264     0.03500
C1663       C  0.48250656  0.17444505  0.42116841    -0.10590
H1664       H  0.49963248  0.14322312  0.38936635     0.09090
H1665       H  0.52933239  0.17942378  0.42731065     0.06620
H1666       H  0.46951300  0.17992364  0.42679233     0.06470
C1667       C  0.40951535  0.23401971  0.59374721     0.03510
C1668       C  0.40060341  0.25088434  0.59867394    -0.12640
C1669       C  0.40519393  0.26755798  0.58946866     0.01010
C1670       C  0.41812021  0.26710120  0.57478331    -0.11170
C1671       C  0.42788766  0.25058108  0.57025106     0.03500
C1672       C  0.42376461  0.23424531  0.58029587    -0.10590
H1673       H  0.39020321  0.25106380  0.60967490     0.09090
H1674       H  0.42088110  0.27991233  0.56729785     0.06620
H1675       H  0.43145809  0.22149194  0.57763854     0.06470
In1676     In  0.37417407  0.12562673  0.37479109     1.36870
C1677       C  0.34013479  0.13651028  0.36596722     0.77960
O1678       O  0.38091227  0.13151702  0.34518666    -0.60490
O1679       O  0.37925334  0.10296324  0.35353042    -0.51400
C1680       C  0.40808925  0.13780172  0.38305134     0.70630
O1681       O  0.39444054  0.14889200  0.38029472    -0.46250
C1682       C  0.36610030  0.11418744  0.40890770     0.75330
O1683       O  0.35301648  0.14820800  0.36938054    -0.58110
O1684       O  0.37002120  0.10276433  0.39583834    -0.48210
O1685       O  0.34465282  0.11950311  0.36749342    -0.54550
C1686       C  0.38206547  0.11454053  0.34039943     0.85510
O1687       O  0.40414845  0.12066779  0.38140056    -0.56440
O1688       O  0.36641218  0.13120406  0.40424947    -0.59730
In1689     In  0.37470778  0.12617424  0.62500707     1.36870
C1690       C  0.36306168  0.11856797  0.59070284     0.77960
O1691       O  0.36961554  0.15575035  0.61736478    -0.60490
O1692       O  0.39797292  0.14674818  0.62068187    -0.51400
C1693       C  0.36333549  0.13533617  0.65887873     0.70630
O1694       O  0.35187445  0.13010191  0.64632267    -0.46250
C1695       C  0.38600210  0.09191266  0.63343562     0.75330
O1696       O  0.35168820  0.12232598  0.60383255    -0.58110
O1697       O  0.39747567  0.10479894  0.62945071    -0.48210
O1698       O  0.38010720  0.11876018  0.59542311    -0.54550
C1699       C  0.38675944  0.16007425  0.61698084     0.85510
O1700       O  0.38029384  0.13563451  0.65395409    -0.56440
O1701       O  0.36900008  0.09681287  0.63308025    -0.59730
In1702     In  0.87490937  0.62557004  0.37419077     1.36870
C1703       C  0.84037072  0.63674664  0.36680691     0.77960
O1704       O  0.88046068  0.63043829  0.34409522    -0.60490
O1705       O  0.87963150  0.60221898  0.35353427    -0.51400
C1706       C  0.90914753  0.63819088  0.38060950     0.70630
O1707       O  0.89541035  0.64915340  0.37781081    -0.46250
C1708       C  0.86761455  0.61395560  0.40855417     0.75330
O1709       O  0.85352982  0.64826666  0.36981681    -0.58110
O1710       O  0.87065965  0.60264143  0.39517721    -0.48210
O1711       O  0.84512412  0.61976366  0.36780747    -0.54550
C1712       C  0.88187728  0.61332148  0.33991316     0.85510
O1713       O  0.90506821  0.62102335  0.38016861    -0.56440
O1714       O  0.86870734  0.63101098  0.40417881    -0.59730
In1715     In  0.62474595  0.37785509  0.12419647     1.36870
C1716       C  0.65897902  0.36566745  0.13177399     0.77960
O1717       O  0.63176863  0.37286826  0.09449766    -0.60490
O1718       O  0.62850492  0.40117846  0.10344674    -0.51400
C1719       C  0.59053386  0.36668613  0.11581443     0.70630
O1720       O  0.60387858  0.35519869  0.11853947    -0.46250
C1721       C  0.61645516  0.38834726  0.15862945     0.75330
O1722       O  0.64560405  0.35450315  0.12839193    -0.58110
O1723       O  0.62179472  0.40005877  0.14646909    -0.48210
O1724       O  0.65453334  0.38275882  0.13122683    -0.54550
C1725       C  0.63205479  0.38995208  0.09009667     0.85510
O1726       O  0.59495499  0.38370805  0.11746455    -0.56440
O1727       O  0.61569406  0.37159591  0.15306481    -0.59730
In1728     In  0.87483334  0.12507520  0.62483004     1.36870
C1729       C  0.86237449  0.15909770  0.63304222     0.77960
O1730       O  0.86898106  0.11590187  0.65381516    -0.60490
O1731       O  0.89751261  0.12070999  0.64643030    -0.51400
C1732       C  0.86347160  0.09106408  0.61606959     0.70630
O1733       O  0.85205763  0.10437536  0.61922097    -0.46250
C1734       C  0.88713401  0.13347091  0.59114006     0.75330
O1735       O  0.85130482  0.14572059  0.62943885    -0.58110
O1736       O  0.89816173  0.13187775  0.60499083    -0.48210
O1737       O  0.87950082  0.15478322  0.63240108    -0.54550
C1738       C  0.88591910  0.11581248  0.65889509     0.85510
O1739       O  0.88057255  0.09543114  0.61739932    -0.56440
O1740       O  0.87011190  0.13033462  0.59453288    -0.59730
C1741       C  0.76655065  0.09094469  0.40627487     0.03510
C1742       C  0.76466761  0.07472443  0.41704357    -0.12640
C1743       C  0.74810289  0.07088138  0.42675880     0.01010
C1744       C  0.73240171  0.08225155  0.42344445    -0.11170
C1745       C  0.73308304  0.09690378  0.41048360     0.03500
C1746       C  0.75037321  0.10161256  0.40234083    -0.10590
H1747       H  0.77645978  0.06527839  0.41828672     0.09090
H1748       H  0.71944355  0.07965085  0.43067418     0.06620
H1749       H  0.75116889  0.11365883  0.39325969     0.06470
C1750       C  0.84033034  0.98352879  0.59095285     0.03510
C1751       C  0.84622205  0.00066069  0.59868105    -0.12640
C1752       C  0.83872240  0.01766865  0.59201287     0.01010
C1753       C  0.82547914  0.01720307  0.57747191    -0.11170
C1754       C  0.81913668  0.00018539  0.57027027     0.03500
C1755       C  0.82662921  0.98341119  0.57692012    -0.10590
H1756       H  0.85658460  0.00072023  0.60977135     0.09090
H1757       H  0.81999684  0.03009639  0.57169883     0.06620
H1758       H  0.82178459  0.97024252  0.57116596     0.06470
C1759       C  0.76167290  0.00044341  0.51340379     0.03510
C1760       C  0.76032989  0.01513187  0.50049795    -0.12640
C1761       C  0.74855688  0.01381985  0.48474928     0.01010
C1762       C  0.73655777  0.99837711  0.48333635    -0.11170
C1763       C  0.73592831  0.98491558  0.49745711     0.03500
C1764       C  0.74904166  0.98553253  0.51204077    -0.10590
H1765       H  0.76855542  0.02755126  0.50287863     0.09090
H1766       H  0.72749437  0.99667367  0.47130989     0.06620
H1767       H  0.74927811  0.97448350  0.52235468     0.06470
C1768       C  0.65679029  0.91032122  0.51641871     0.03510
C1769       C  0.65125301  0.90107755  0.49974839    -0.12640
C1770       C  0.65891291  0.90626852  0.48237397     0.01010
C1771       C  0.67260966  0.92014801  0.48170684    -0.11170
C1772       C  0.67817600  0.92929302  0.49799425     0.03500
C1773       C  0.66994649  0.92485268  0.51505917    -0.10590
H1774       H  0.64142779  0.88963677  0.50010622     0.09090
H1775       H  0.67873626  0.92407366  0.46843565     0.06620
H1776       H  0.67408076  0.93278366  0.52730363     0.06470
C1777       C  0.72112809  0.97057854  0.49716399    -0.05090
C1778       C  0.72577563  0.95167758  0.49969200    -0.32520
C1779       C  0.71180825  0.93807036  0.49972414     0.36730
C1780       C  0.69299198  0.94334620  0.49733497    -0.05450
C1781       C  0.68825841  0.96214667  0.49484432    -0.32420
C1782       C  0.70216969  0.97578275  0.49483733     0.36640
H1783       H  0.74024766  0.94746879  0.50154199     0.17010
O1784       O  0.71658898  0.91969499  0.50247045    -0.59910
H1785       H  0.67373035  0.96625019  0.49316745     0.17020
O1786       O  0.69705879  0.99419072  0.49295140    -0.60010
H1787       H  0.69601476  0.99906519  0.50590811     0.44020
H1788       H  0.71806341  0.91434751  0.48974365     0.43980
C1789       C  0.80448085  0.00001649  0.55583108    -0.05090
C1790       C  0.80872347  0.00595917  0.53773746    -0.32520
C1791       C  0.79499220  0.00597882  0.52380144     0.36730
C1792       C  0.77645858  0.00057737  0.52805686    -0.05450
C1793       C  0.77231021  0.99468979  0.54632189    -0.32420
C1794       C  0.78621242  0.99427871  0.56011779     0.36640
H1795       H  0.82283329  0.01027447  0.53434380     0.17010
O1796       O  0.79999635  0.01089322  0.50598513    -0.59910
H1797       H  0.75822853  0.99054689  0.54998455     0.17020
O1798       O  0.78182326  0.98832990  0.57777826    -0.60010
H1799       H  0.77862882  0.99985437  0.58484681     0.44020
H1800       H  0.80263704  0.99891934  0.49946012     0.43980
C1801       C  0.74856557  0.02846436  0.46989607    -0.05090
C1802       C  0.73204604  0.03230625  0.45978323    -0.32520
C1803       C  0.73176086  0.04529415  0.44519486     0.36730
C1804       C  0.74789853  0.05586007  0.44121106    -0.05450
C1805       C  0.76430626  0.05221757  0.45152850    -0.32420
C1806       C  0.76495833  0.03832506  0.46516766     0.36640
H1807       H  0.71913912  0.02514907  0.46296534     0.17010
O1808       O  0.71599239  0.04664052  0.43425659    -0.59910
H1809       H  0.77695559  0.06008476  0.44905882     0.17020
O1810       O  0.78199752  0.03376753  0.47286045    -0.60010
H1811       H  0.78591645  0.04489295  0.48019132     0.44020
H1812       H  0.70599224  0.05148209  0.44259677     0.43980
C1813       C  0.84492426  0.03601770  0.59964245    -0.05090
C1814       C  0.86409117  0.03968172  0.60182359    -0.32520
C1815       C  0.87033011  0.05735964  0.60751984     0.36730
C1816       C  0.85732180  0.07189195  0.61102818    -0.05450
C1817       C  0.83814196  0.06802325  0.60946867    -0.32420
C1818       C  0.83189809  0.05032506  0.60384306     0.36640
H1819       H  0.87433547  0.02893726  0.59861684     0.17010
O1820       O  0.88921791  0.06033700  0.60912762    -0.59910
H1821       H  0.82786835  0.07879989  0.61246353     0.17020
O1822       O  0.81300580  0.04694785  0.60306683    -0.60010
H1823       H  0.80818766  0.05462276  0.59255936     0.44020
H1824       H  0.89238488  0.05691771  0.62219174     0.43980
C1825       C  0.40350220  0.21584872  0.60169679    -0.05090
C1826       C  0.41692119  0.20294960  0.60817899    -0.32520
C1827       C  0.41174076  0.18485427  0.61351598     0.36730
C1828       C  0.39285181  0.17931804  0.61235778    -0.05450
C1829       C  0.37939905  0.19242062  0.60637238    -0.32420
C1830       C  0.38458113  0.21043559  0.60095418     0.36640
H1831       H  0.43155171  0.20683410  0.60882916     0.17010
O1832       O  0.42533643  0.17262614  0.61941891    -0.59910
H1833       H  0.36478416  0.18855426  0.60535458     0.17020
O1834       O  0.37111018  0.22235231  0.59416010    -0.60010
H1835       H  0.37107048  0.22033943  0.58042953     0.44020
H1836       H  0.42608903  0.17442050  0.63315797     0.43980
C1837       C  0.46382578  0.15486034  0.39910780    -0.05090
C1838       C  0.44952902  0.16825186  0.39653147    -0.32520
C1839       C  0.43138847  0.16299712  0.39136040     0.36730
C1840       C  0.42725280  0.14405801  0.38801529    -0.05450
C1841       C  0.44164222  0.13070828  0.38996079    -0.32420
C1842       C  0.45974248  0.13592088  0.39548395     0.36640
H1843       H  0.45231126  0.18294613  0.39888851     0.17010
O1844       O  0.41780338  0.17652027  0.38988660    -0.59910
H1845       H  0.43879742  0.11602668  0.38758892     0.17020
O1846       O  0.47291035  0.12224027  0.39849756    -0.60010
H1847       H  0.47650771  0.11771528  0.38587384     0.44020
H1848       H  0.41248915  0.17776907  0.40263512     0.43980
C1849       C  0.49894450  0.22467563  0.46952166    -0.05090
C1850       C  0.49345386  0.20641937  0.47421174    -0.32520
C1851       C  0.49348309  0.19218129  0.46082743     0.36730
C1852       C  0.49927910  0.19599875  0.44251188    -0.05450
C1853       C  0.50473066  0.21411983  0.43767590    -0.32420
C1854       C  0.50434523  0.22850674  0.45094834     0.36640
H1855       H  0.48942596  0.20307447  0.48840375     0.17010
O1856       O  0.48793880  0.17454811  0.46577810    -0.59910
H1857       H  0.50898034  0.21715798  0.42347463     0.17020
O1858       O  0.50897198  0.24625535  0.44551065    -0.60010
H1859       H  0.49687649  0.25248894  0.44266239     0.44020
H1860       H  0.49960502  0.16794529  0.46946506     0.43980
C1861       C  0.47150449  0.25169681  0.52810622    -0.05090
C1862       C  0.46099475  0.23538598  0.53111175    -0.32520
C1863       C  0.44638069  0.23496545  0.54407582     0.36730
C1864       C  0.44275516  0.25067255  0.55555864    -0.05450
C1865       C  0.45348665  0.26687305  0.55280412    -0.32420
C1866       C  0.46717828  0.26773297  0.53889513     0.36640
H1867       H  0.46386369  0.22273354  0.52328591     0.17010
O1868       O  0.43502102  0.21954027  0.54446512    -0.59910
H1869       H  0.45127220  0.27919663  0.56133829     0.17020
O1870       O  0.47529427  0.28468491  0.53523677    -0.60010
H1871       H  0.48268359  0.28787760  0.54656861     0.44020
H1872       H  0.44307565  0.20905996  0.54876781     0.43980
C1873       C  0.55848885  0.30588551  0.50050908    -0.05090
C1874       C  0.54019210  0.31055891  0.50564552    -0.32520
C1875       C  0.52630346  0.29691905  0.50603960     0.36730
C1876       C  0.53078431  0.27813201  0.50172172    -0.05450
C1877       C  0.54927419  0.27351469  0.49676039    -0.32420
C1878       C  0.56307535  0.28729170  0.49608380     0.36640
H1879       H  0.53661598  0.32491478  0.50902560     0.17010
O1880       O  0.50829925  0.30223338  0.51014458    -0.59910
H1881       H  0.55304028  0.25920825  0.49342173     0.17020
O1882       O  0.58097135  0.28250932  0.49100889    -0.60010
H1883       H  0.58765231  0.28009684  0.50293900     0.44020
H1884       H  0.50219105  0.30435302  0.49785887     0.43980
C1885       C  0.57137997  0.14001055  0.39177687    -0.05090
C1886       C  0.55779734  0.14414186  0.37807606    -0.32520
C1887       C  0.53980220  0.15019402  0.38305890     0.36730
C1888       C  0.53495329  0.15201732  0.40205503    -0.05450
C1889       C  0.54836516  0.14737458  0.41574480    -0.32420
C1890       C  0.56638996  0.14144722  0.41077440     0.36640
H1891       H  0.56125041  0.14314569  0.36336345     0.17010
O1892       O  0.52734993  0.15495722  0.36922521    -0.59910
H1893       H  0.54491266  0.14856673  0.43044769     0.17020
O1894       O  0.57912683  0.13765398  0.42464554    -0.60010
H1895       H  0.57735593  0.12424935  0.42761596     0.44020
H1896       H  0.52900890  0.16858174  0.36737923     0.43980
C1897       C  0.67879491  0.11566518  0.39222170    -0.05090
C1898       C  0.68350444  0.11636942  0.41129019    -0.32520
C1899       C  0.70156655  0.11162326  0.41739905     0.36730
C1900       C  0.71528203  0.10585109  0.40439900    -0.05450
C1901       C  0.71086737  0.10608942  0.38529137    -0.32420
C1902       C  0.69284780  0.11082869  0.37915581     0.36640
H1903       H  0.67307859  0.12031766  0.42156000     0.17010
O1904       O  0.70552277  0.11221728  0.43616850    -0.59910
H1905       H  0.72114757  0.10158414  0.37509076     0.17020
O1906       O  0.68907355  0.11019420  0.36034625    -0.60010
H1907       H  0.68550397  0.09705406  0.35774309     0.44020
H1908       H  0.71167246  0.12445227  0.43824122     0.43980
C1909       C  0.34502717  0.10336696  0.53508410    -0.05090
C1910       C  0.36416049  0.10450578  0.53931700    -0.32520
C1911       C  0.37022001  0.10972827  0.55721556     0.36730
C1912       C  0.35704362  0.11405572  0.57132892    -0.05450
C1913       C  0.33791204  0.11364791  0.56685193    -0.32420
C1914       C  0.33187537  0.10848844  0.54892678     0.36640
H1915       H  0.37449385  0.10062963  0.52892382     0.17010
O1916       O  0.38909088  0.11036808  0.56073677    -0.59910
H1917       H  0.32753917  0.11713700  0.57733648     0.17020
O1918       O  0.31303738  0.10830111  0.54516503    -0.60010
H1919       H  0.31037929  0.12042433  0.53900401     0.44020
H1920       H  0.39266198  0.09740738  0.56415538     0.43980
C1921       C  0.34974633  0.09842962  0.46464463    -0.05090
C1922       C  0.35634209  0.08479716  0.45204560    -0.32520
C1923       C  0.36211268  0.08967384  0.43400476     0.36730
C1924       C  0.36119831  0.10846232  0.42819650    -0.05450
C1925       C  0.35505871  0.12213580  0.44101460    -0.32420
C1926       C  0.34928101  0.11724742  0.45902352     0.36640
H1927       H  0.35676767  0.07023372  0.45614807     0.17010
O1928       O  0.36818880  0.07588582  0.42208819    -0.59910
H1929       H  0.35422705  0.13668345  0.43692728     0.17020
O1930       O  0.34246979  0.13088497  0.47072866    -0.60010
H1931       H  0.32875328  0.13107197  0.46854288     0.44020
H1932       H  0.38188958  0.07501330  0.42421135     0.43980
C1933       C  0.27700428  0.03178258  0.50001962    -0.05090
C1934       C  0.29592122  0.02644807  0.50087654    -0.32520
C1935       C  0.30999399  0.03990455  0.50056223     0.36730
C1936       C  0.30516615  0.05891144  0.49967216    -0.05450
C1937       C  0.28631426  0.06432763  0.49897738    -0.32420
C1938       C  0.27220796  0.05086072  0.49912407     0.36640
H1939       H  0.29976325  0.01179063  0.50149905     0.17010
O1940       O  0.32839884  0.03441530  0.50136837    -0.59910
H1941       H  0.28257852  0.07901012  0.49836027     0.17020
O1942       O  0.25382760  0.05644891  0.49854742    -0.60010
H1943       H  0.24983187  0.05711867  0.51180403     0.44020
H1944       H  0.33237181  0.03312318  0.48814693     0.43980
C1945       C  0.19549960  0.00122712  0.44053834    -0.05090
C1946       C  0.19074819  0.99630385  0.45881327    -0.32520
C1947       C  0.20429513  0.99615501  0.47288504     0.36730
C1948       C  0.22306449  0.00053595  0.46862386    -0.05450
C1949       C  0.22777059  0.00532627  0.45017255    -0.32420
C1950       C  0.21407839  0.00573755  0.43616959     0.36640
H1951       H  0.17638331  0.99292845  0.46223050     0.17010
O1952       O  0.19890510  0.99221871  0.49083815    -0.59910
H1953       H  0.24208298  0.00871664  0.44659942     0.17020
O1954       O  0.21891468  0.01068010  0.41831771    -0.60010
H1955       H  0.22164852  0.99871796  0.41180843     0.44020
H1956       H  0.19664701  0.00455402  0.49680675     0.43980
C1957       C  0.25028894  0.94708970  0.55693625    -0.05090
C1958       C  0.23386399  0.95071540  0.54666243    -0.32520
C1959       C  0.23336082  0.96436153  0.53272184     0.36730
C1960       C  0.24988048  0.97394578  0.52777031    -0.05450
C1961       C  0.26634964  0.97013919  0.53791483    -0.32420
C1962       C  0.26644195  0.95760824  0.55281211     0.36640
H1963       H  0.22115190  0.94303204  0.54938508     0.17010
O1964       O  0.21638977  0.96893884  0.52489414    -0.59910
H1965       H  0.27935039  0.97704337  0.53455020     0.17020
O1966       O  0.28235135  0.95625231  0.56347826    -0.60010
H1967       H  0.28020099  0.96469996  0.57429412     0.44020
H1968       H  0.21239294  0.95771911  0.51775492     0.43980
C1969       C  0.14134141  0.93037247  0.38764598    -0.05090
C1970       C  0.15999014  0.93585701  0.38508426    -0.32520
C1971       C  0.16586232  0.95382359  0.39014434     0.36730
C1972       C  0.15307224  0.96665622  0.39806900    -0.05450
C1973       C  0.13434144  0.96139097  0.40020902    -0.32420
C1974       C  0.12844821  0.94340417  0.39521140     0.36640
H1975       H  0.17009684  0.92617322  0.37919840     0.17010
O1976       O  0.18423046  0.95864210  0.38751529    -0.59910
H1977       H  0.12439539  0.97100898  0.40647331     0.17020
O1978       O  0.11013091  0.93862605  0.39822518    -0.60010
H1979       H  0.10985751  0.93346388  0.41107785     0.44020
H1980       H  0.18445224  0.96534061  0.37540118     0.43980
C1981       C  0.61313536  0.35893897  0.57149380    -0.05090
C1982       C  0.61272474  0.33986916  0.56691956    -0.32520
C1983       C  0.60743567  0.33391788  0.54902858     0.36730
C1984       C  0.60206000  0.34708602  0.53532157    -0.05450
C1985       C  0.60317254  0.36618472  0.53963508    -0.32420
C1986       C  0.60861807  0.37216505  0.55751248     0.36640
H1987       H  0.61639451  0.32946512  0.57728909     0.17010
O1988       O  0.60739167  0.31512329  0.54516029    -0.59910
H1989       H  0.59913069  0.37652830  0.52934009     0.17020
O1990       O  0.60919092  0.39098582  0.56117562    -0.60010
H1991       H  0.59631551  0.39437967  0.56512710     0.44020
H1992       H  0.61946964  0.31262570  0.53880378     0.43980
C1993       C  0.47027188  0.52941873  0.75131413    -0.05090
C1994       C  0.45170761  0.52499191  0.75563604    -0.32520
C1995       C  0.43789432  0.53887564  0.75546226     0.36730
C1996       C  0.44257052  0.55726876  0.75043377    -0.05450
C1997       C  0.46109167  0.56164039  0.74587793    -0.32420
C1998       C  0.47499261  0.54785814  0.74652142     0.36640
H1999       H  0.44797726  0.51078424  0.75921925     0.17010
O2000       O  0.41975235  0.53427206  0.75959675    -0.59910
H2001       H  0.46477151  0.57578395  0.74200357     0.17020
O2002       O  0.49302135  0.55233145  0.74180454    -0.60010
H2003       H  0.49874876  0.55721043  0.75347838     0.44020
H2004       H  0.41898879  0.53471855  0.77343649     0.43980
C2005       C  0.53662588  0.40250014  0.65285818    -0.05090
C2006       C  0.53920680  0.39596567  0.63442231    -0.32520
C2007       C  0.55704465  0.39081539  0.62794196     0.36730
C2008       C  0.57274527  0.39277476  0.63966965    -0.05450
C2009       C  0.57029476  0.39888204  0.65806273    -0.32420
C2010       C  0.55245323  0.40330591  0.66486800     0.36640
H2011       H  0.52746337  0.39511027  0.62486288     0.17010
O2012       O  0.55900692  0.38399085  0.61010380    -0.59910
H2013       H  0.58222414  0.39958822  0.66744166     0.17020
O2014       O  0.55050448  0.40722635  0.68358232    -0.60010
H2015       H  0.55781299  0.41877979  0.68588201     0.44020
H2016       H  0.56200233  0.39502452  0.60232833     0.43980
C2017       C  0.49882692  0.44522393  0.69290698    -0.05090
C2018       C  0.49160889  0.46297917  0.68898947    -0.32520
C2019       C  0.49176338  0.47700784  0.70266586     0.36730
C2020       C  0.49849703  0.47308780  0.72090948    -0.05450
C2021       C  0.50543354  0.45505142  0.72471372    -0.32420
C2022       C  0.50589001  0.44131574  0.71082071     0.36640
H2023       H  0.48636007  0.46611727  0.67511307     0.17010
O2024       O  0.48581195  0.49457898  0.69778944    -0.59910
H2025       H  0.51043631  0.45145121  0.73854950     0.17020
O2026       O  0.51331690  0.42407365  0.71485837    -0.60010
H2027       H  0.50249801  0.41630426  0.71858554     0.44020
H2028       H  0.49735301  0.50148398  0.69453715     0.43980
C2029       C  0.55593260  0.50039515  0.80589969    -0.05090
C2030       C  0.53704857  0.49951087  0.81094759    -0.32520
C2031       C  0.52308272  0.49986201  0.79722938     0.36730
C2032       C  0.52799446  0.50106401  0.77818485    -0.05450
C2033       C  0.54695707  0.50167537  0.77316846    -0.32420
C2034       C  0.56090445  0.50152728  0.78693220     0.36640
H2035       H  0.53316032  0.49862094  0.82555406     0.17010
O2036       O  0.50468001  0.49885910  0.80254651    -0.59910
H2037       H  0.55091874  0.50253462  0.75858206     0.17020
O2038       O  0.57936110  0.50218600  0.78175199    -0.60010
H2039       H  0.58252664  0.51566693  0.78154704     0.44020
H2040       H  0.50146309  0.48540807  0.80175954     0.43980
C2041       C  0.61238279  0.57253081  0.85568956    -0.05090
C2042       C  0.60939657  0.55866735  0.86927842    -0.32520
C2043       C  0.60367406  0.54061170  0.86424803     0.36730
C2044       C  0.60109028  0.53589717  0.84525901    -0.05450
C2045       C  0.60471519  0.54959251  0.83163795    -0.32420
C2046       C  0.61022561  0.56771967  0.83668874     0.36640
H2047       H  0.61095983  0.56195395  0.88399867     0.17010
O2048       O  0.59987598  0.52798364  0.87810176    -0.59910
H2049       H  0.60296281  0.54632389  0.81693478     0.17020
O2050       O  0.61281806  0.58073985  0.82292326    -0.60010
H2051       H  0.62613470  0.57943843  0.81924388     0.44020
H2052       H  0.58631581  0.52945492  0.88068818     0.43980
C2053       C  0.60694244  0.42855758  0.86028755    -0.05090
C2054       C  0.61827712  0.43875509  0.84795070    -0.32520
C2055       C  0.61328859  0.45685541  0.84239207     0.36730
C2056       C  0.59695187  0.46526560  0.84944300    -0.05450
C2057       C  0.58568605  0.45525942  0.86194751    -0.32420
C2058       C  0.59063434  0.43707078  0.86748226     0.36640
H2059       H  0.63085633  0.43249505  0.84220503     0.17010
O2060       O  0.62418924  0.46603246  0.82963832    -0.59910
H2061       H  0.57291968  0.46151900  0.86726442     0.17020
O2062       O  0.57947972  0.42781414  0.87994281    -0.60010
H2063       H  0.58494053  0.43054469  0.89241961     0.44020
H2064       H  0.61875413  0.46285853  0.81725398     0.43980
C2065       C  0.38578248  0.60685630  0.82173823    -0.05090
C2066       C  0.38909195  0.62052184  0.80803783    -0.32520
C2067       C  0.39472735  0.61553813  0.78995880     0.36730
C2068       C  0.39689012  0.59655278  0.78511503    -0.05450
C2069       C  0.39285815  0.58286904  0.79860627    -0.32420
C2070       C  0.38742357  0.58786205  0.81675493     0.36640
H2071       H  0.38786718  0.63523648  0.81147297     0.17010
O2072       O  0.39889616  0.62939210  0.77744913    -0.59910
H2073       H  0.39432166  0.56817205  0.79517547     0.17020
O2074       O  0.38444158  0.57404332  0.82963236    -0.60010
H2075       H  0.37104450  0.57072198  0.82825942     0.44020
H2076       H  0.41249641  0.63167170  0.77901134     0.43980
C2077       C  0.15263665  0.78675894  0.35066686    -0.05090
C2078       C  0.16633965  0.80022761  0.35490522    -0.32520
C2079       C  0.16134378  0.81832723  0.36060519     0.36730
C2080       C  0.14231710  0.82331239  0.36225450    -0.05450
C2081       C  0.12863917  0.80964873  0.35866634    -0.32420
C2082       C  0.13362697  0.79161133  0.35280591     0.36640
H2083       H  0.18105543  0.79679351  0.35347774     0.17010
O2084       O  0.17519406  0.83114624  0.36389085    -0.59910
H2085       H  0.11390518  0.81308272  0.35986162     0.17020
O2086       O  0.11974251  0.77914252  0.34843948    -0.60010
H2087       H  0.11750390  0.78069742  0.33483940     0.44020
H2088       H  0.17850661  0.82964780  0.37727914     0.43980
C2089       C  0.27699061  0.72321842  0.24981250    -0.05090
C2090       C  0.27749287  0.70987077  0.23548843    -0.32520
C2091       C  0.29109727  0.69578557  0.23544100     0.36730
C2092       C  0.30513110  0.69542012  0.24947747    -0.05450
C2093       C  0.30455437  0.70907287  0.26372807    -0.32420
C2094       C  0.29045475  0.72265986  0.26412035     0.36640
H2095       H  0.26696236  0.71009984  0.22454915     0.17010
O2096       O  0.29013892  0.68224163  0.22185908    -0.59910
H2097       H  0.31516130  0.70941482  0.27456264     0.17020
O2098       O  0.28999903  0.73540674  0.27848874    -0.60010
H2099       H  0.29715563  0.74631103  0.27391341     0.44020
H2100       H  0.28337946  0.67170040  0.22770546     0.43980
C2101       C  0.21978180  0.75154739  0.27745481    -0.05090
C2102       C  0.20336778  0.74128174  0.27473635    -0.32520
C2103       C  0.18945506  0.74119532  0.28843075     0.36730
C2104       C  0.19201959  0.75135960  0.30518738    -0.05450
C2105       C  0.20849877  0.76172681  0.30775020    -0.32420
C2106       C  0.22236071  0.76181196  0.29401495     0.36640
H2107       H  0.20132944  0.73340578  0.26192381     0.17010
O2108       O  0.17332750  0.73135037  0.28518944    -0.59910
H2109       H  0.21072645  0.76958321  0.32053982     0.17020
O2110       O  0.23830043  0.77209025  0.29678109    -0.60010
H2111       H  0.24741027  0.76330007  0.30250793     0.44020
H2112       H  0.16432536  0.74059927  0.28004670     0.43980
C2113       C  0.24792982  0.77907404  0.22044967    -0.05090
C2114       C  0.26183890  0.79275808  0.22082162    -0.32520
C2115       C  0.26226053  0.80672992  0.20724974     0.36730
C2116       C  0.24905023  0.80668014  0.19245342    -0.05450
C2117       C  0.23514621  0.79277605  0.19219486    -0.32420
C2118       C  0.23438988  0.77922205  0.20619982     0.36640
H2119       H  0.27216640  0.79283567  0.23195454     0.17010
O2120       O  0.27537158  0.82058271  0.20893998    -0.59910
H2121       H  0.22489364  0.79225374  0.18102820     0.17020
O2122       O  0.22042208  0.76613006  0.20582078    -0.60010
H2123       H  0.22574806  0.75532055  0.19890512     0.44020
H2124       H  0.26882883  0.83105269  0.21531787     0.43980
C2125       C  0.24868925  0.47254574  0.02832441    -0.05090
C2126       C  0.23619301  0.47407715  0.04328848    -0.32520
C2127       C  0.23626629  0.46074107  0.05753248     0.36730
C2128       C  0.24868484  0.44533546  0.05662066    -0.05450
C2129       C  0.26119454  0.44395919  0.04151739    -0.32420
C2130       C  0.26131330  0.45749316  0.02750430     0.36640
H2131       H  0.22658374  0.48581673  0.04405858     0.17010
O2132       O  0.22439300  0.46310959  0.07240165    -0.59910
H2133       H  0.27076266  0.43221894  0.04042632     0.17020
O2134       O  0.27384820  0.45595433  0.01307861    -0.60010
H2135       H  0.26708706  0.44910356  0.00307050     0.44020
H2136       H  0.23195331  0.46948983  0.08214520     0.43980
C2137       C  0.19334698  0.50130797  0.94237210    -0.05090
C2138       C  0.18821863  0.49764298  0.96085967    -0.32520
C2139       C  0.20165611  0.49746714  0.97506899     0.36730
C2140       C  0.22068250  0.50051405  0.97076238    -0.05450
C2141       C  0.22572329  0.50413971  0.95210831    -0.32420
C2142       C  0.21216462  0.50462823  0.93797442     0.36640
H2143       H  0.17367350  0.49516560  0.96430057     0.17010
O2144       O  0.19594315  0.49470302  0.99314182    -0.59910
H2145       H  0.24023118  0.50643599  0.94843506     0.17020
O2146       O  0.21739400  0.50838088  0.91993861    -0.60010
H2147       H  0.21974484  0.49598624  0.91413266     0.44020
H2148       H  0.19432482  0.50741361  0.99848920     0.43980
C2149       C  0.34875411  0.59717284  0.96474905    -0.05090
C2150       C  0.35165718  0.58358254  0.95074371    -0.32520
C2151       C  0.35703756  0.58859380  0.93265620     0.36730
C2152       C  0.36017936  0.60749278  0.92829300    -0.05450
C2153       C  0.35786402  0.62105024  0.94240702    -0.32420
C2154       C  0.35218748  0.61606641  0.96046289     0.36640
H2155       H  0.34940656  0.56892765  0.95372399     0.17010
O2156       O  0.35892243  0.57487337  0.91934307    -0.59910
H2157       H  0.36006943  0.63570120  0.93937336     0.17020
O2158       O  0.34884032  0.62989985  0.97337424    -0.60010
H2159       H  0.36137532  0.63452142  0.97713805     0.44020
H2160       H  0.34626199  0.57343975  0.91379966     0.43980
C2161       C  0.30496822  0.55704617  0.00025631    -0.05090
C2162       C  0.30997191  0.53852402  0.00406508    -0.32520
C2163       C  0.29647672  0.52446505  0.00378594     0.36730
C2164       C  0.27755037  0.52899449  0.00013322    -0.05450
C2165       C  0.27265471  0.54766901  0.99636499    -0.32420
C2166       C  0.28625551  0.56163065  0.99631522     0.36640
H2167       H  0.32445069  0.53493570  0.00693270     0.17010
O2168       O  0.30202788  0.50632835  0.00671050    -0.59910
H2169       H  0.25821969  0.55149437  0.99362535     0.17020
O2170       O  0.28117601  0.57970132  0.99235211    -0.60010
H2171       H  0.27869300  0.58560608  0.00467002     0.44020
H2172       H  0.30381152  0.50093730  0.99404225     0.43980
C2173       C  0.35802291  0.63990303  0.17850912    -0.05090
C2174       C  0.37172981  0.64519041  0.19168118    -0.32520
C2175       C  0.36671153  0.65129477  0.20963659     0.36730
C2176       C  0.34773102  0.65206849  0.21477226    -0.05450
C2177       C  0.33407946  0.64628828  0.20181475    -0.32420
C2178       C  0.33906309  0.64018590  0.18388887     0.36640
H2179       H  0.38641069  0.64505646  0.18792482     0.17010
O2180       O  0.38041186  0.65710749  0.22177843    -0.59910
H2181       H  0.31939447  0.64671835  0.20557045     0.17020
O2182       O  0.32521218  0.63495444  0.17165747    -0.60010
H2183       H  0.32351645  0.62136830  0.17373541     0.44020
H2184       H  0.38149369  0.67076492  0.21973865     0.43980
C2185       C  0.35687045  0.61214387  0.07206569    -0.05090
C2186       C  0.37043040  0.60842845  0.05828546    -0.32520
C2187       C  0.36527498  0.60250905  0.04029153     0.36730
C2188       C  0.34622364  0.60019388  0.03574592    -0.05450
C2189       C  0.33266556  0.60435208  0.04941400    -0.32420
C2190       C  0.33781737  0.61018969  0.06739411     0.36640
H2191       H  0.38518873  0.60971756  0.06154484     0.17010
O2192       O  0.37900131  0.59782550  0.02771677    -0.59910
H2193       H  0.31791393  0.60285154  0.04621028     0.17020
O2194       O  0.32408853  0.61333431  0.08041018    -0.60010
H2195       H  0.32037637  0.62659744  0.07874707     0.44020
H2196       H  0.38444583  0.60987445  0.02365314     0.43980
C2197       C  0.32122557  0.38901939  0.10665403    -0.05090
C2198       C  0.30692578  0.39063405  0.12008262    -0.32520
C2199       C  0.28874706  0.39620108  0.11505713     0.36730
C2200       C  0.28450633  0.40031343  0.09625542    -0.05450
C2201       C  0.29867783  0.39803472  0.08274586    -0.32420
C2202       C  0.31687786  0.39266718  0.08780392     0.36640
H2203       H  0.30990380  0.38795542  0.13469549     0.17010
O2204       O  0.27564250  0.39879962  0.12882036    -0.59910
H2205       H  0.29573932  0.40081121  0.06814356     0.17020
O2206       O  0.33033824  0.39141547  0.07421474    -0.60010
H2207       H  0.33568938  0.40415209  0.07331747     0.44020
H2208       H  0.27194264  0.38604933  0.13272273     0.43980
C2209       C  0.61112785  0.39353853  0.17789494    -0.05090
C2210       C  0.62151246  0.40681316  0.18799183    -0.32520
C2211       C  0.61660639  0.41145738  0.20644177     0.36730
C2212       C  0.60092482  0.40309811  0.21478541    -0.05450
C2213       C  0.59059769  0.38984604  0.20470085    -0.32420
C2214       C  0.59571219  0.38487760  0.18648524     0.36640
H2215       H  0.63346902  0.41349419  0.18160466     0.17010
O2216       O  0.62667410  0.42476162  0.21590256    -0.59910
H2217       H  0.57821278  0.38369823  0.21082542     0.17020
O2218       O  0.58483986  0.37240490  0.17675252    -0.60010
H2219       H  0.58932060  0.35987816  0.18067944     0.44020
H2220       H  0.63609796  0.41766430  0.22324254     0.43980
C2221       C  0.50100689  0.52817912  0.27922932    -0.05090
C2222       C  0.49426545  0.52403613  0.29710245    -0.32520
C2223       C  0.49452518  0.53761520  0.31120248     0.36730
C2224       C  0.50171026  0.55552560  0.30745118    -0.05450
C2225       C  0.50888890  0.55944370  0.28965004    -0.32420
C2226       C  0.50841650  0.54593077  0.27551682     0.36640
H2227       H  0.48862595  0.51032015  0.30003179     0.17010
O2228       O  0.48766323  0.53330252  0.32854659    -0.59910
H2229       H  0.51440810  0.57317716  0.28657586     0.17020
O2230       O  0.51540373  0.55008166  0.25818059    -0.60010
H2231       H  0.50469511  0.55546753  0.25114533     0.44020
H2232       H  0.49874511  0.52940713  0.33597414     0.43980
C2233       C  0.52736327  0.47142487  0.24905479    -0.05090
C2234       C  0.54272254  0.47322873  0.23712603    -0.32520
C2235       C  0.55667054  0.45950425  0.23671245     0.36730
C2236       C  0.55506924  0.44346121  0.24804630    -0.05450
C2237       C  0.53938540  0.44161736  0.25973281    -0.32420
C2238       C  0.52563785  0.45553659  0.26034683     0.36640
H2239       H  0.54409513  0.48553477  0.22844751     0.17010
O2240       O  0.57206253  0.46222296  0.22563850    -0.59910
H2241       H  0.53781537  0.42938707  0.26846923     0.17020
O2242       O  0.51069305  0.45364146  0.27218145    -0.60010
H2243       H  0.50072891  0.44775886  0.26451201     0.44020
H2244       H  0.58152426  0.46807729  0.23394386     0.43980
C2245       C  0.40384140  0.53628396  0.14861962    -0.05090
C2246       C  0.38475949  0.54081088  0.14768496    -0.32520
C2247       C  0.37887625  0.55872290  0.14238860     0.36730
C2248       C  0.39218620  0.57252138  0.13772096    -0.05450
C2249       C  0.41125374  0.56771643  0.13791054    -0.32420
C2250       C  0.41710727  0.54978591  0.14319261     0.36640
H2251       H  0.37436209  0.53066531  0.15184116     0.17010
O2252       O  0.36005658  0.56260041  0.14212022    -0.59910
H2253       H  0.42171672  0.57794944  0.13416291     0.17020
O2254       O  0.43588372  0.54569294  0.14326931    -0.60010
H2255       H  0.43826642  0.53933797  0.13115701     0.44020
H2256       H  0.35696019  0.56647981  0.15508209     0.43980
C2257       C  0.39925784  0.46603866  0.15404654    -0.05090
C2258       C  0.40111928  0.46057683  0.13531226    -0.32520
C2259       C  0.39611391  0.44256211  0.12952119     0.36730
C2260       C  0.38878950  0.42966800  0.14251775    -0.05450
C2261       C  0.38654058  0.43532153  0.16120168    -0.32420
C2262       C  0.39164803  0.45333486  0.16697996     0.36640
H2263       H  0.40715174  0.47008992  0.12524869     0.17010
O2264       O  0.39883435  0.43764236  0.11116908    -0.59910
H2265       H  0.38083596  0.42574962  0.17139256     0.17020
O2266       O  0.38930817  0.45834439  0.18535967    -0.60010
H2267       H  0.37710632  0.46499332  0.18579103     0.44020
H2268       H  0.41170272  0.43239997  0.11067767     0.43980
C2269       C  0.44307017  0.50181566  0.19438966    -0.05090
C2270       C  0.46188132  0.50208067  0.18898045    -0.32520
C2271       C  0.47606273  0.50230305  0.20245061     0.36730
C2272       C  0.47142189  0.50231008  0.22158793    -0.05450
C2273       C  0.45253109  0.50237065  0.22694608    -0.32420
C2274       C  0.43836346  0.50196619  0.21343892     0.36640
H2275       H  0.46553645  0.50206845  0.17428076     0.17010
O2276       O  0.49439366  0.50256978  0.19679893    -0.59910
H2277       H  0.44879356  0.50234133  0.24162199     0.17020
O2278       O  0.41998282  0.50196604  0.21892839    -0.60010
H2279       H  0.41650233  0.48858830  0.21972542     0.44020
H2280       H  0.49793151  0.51595830  0.19679367     0.43980
C2281       C  0.36099684  0.64422251  0.32191594    -0.05090
C2282       C  0.35733679  0.63061859  0.30810914    -0.32520
C2283       C  0.35143714  0.63570118  0.29012531     0.36730
C2284       C  0.34927806  0.65470435  0.28551827    -0.05450
C2285       C  0.35334678  0.66831420  0.29917754    -0.32420
C2286       C  0.35915890  0.66323908  0.31718878     0.36640
H2287       H  0.35862525  0.61588900  0.31135642     0.17010
O2288       O  0.34718888  0.62194590  0.27741626    -0.59910
H2289       H  0.35184048  0.68302287  0.29590465     0.17020
O2290       O  0.36250794  0.67700683  0.33014248    -0.60010
H2291       H  0.37588673  0.68027078  0.32855964     0.44020
H2292       H  0.33357118  0.61975449  0.27886397     0.43980
C2293       C  0.42709270  0.60736283  0.36108280    -0.05090
C2294       C  0.42941342  0.60052676  0.34292746    -0.32520
C2295       C  0.44722602  0.59599582  0.33611110     0.36730
C2296       C  0.46317626  0.59743625  0.34789524    -0.05450
C2297       C  0.46070940  0.60454220  0.36613314    -0.32420
C2298       C  0.44289134  0.60979657  0.37259786     0.36640
H2299       H  0.41741466  0.59943485  0.33367760     0.17010
O2300       O  0.44901969  0.59146757  0.31751915    -0.59910
H2301       H  0.47255610  0.60590490  0.37550423     0.17020
O2302       O  0.44106222  0.61731935  0.39017000    -0.60010
H2303       H  0.43809338  0.60660849  0.39839308     0.44020
H2304       H  0.44201685  0.57963786  0.31575890     0.43980
C2305       C  0.57061225  0.61447627  0.35593981    -0.05090
C2306       C  0.55905845  0.60494943  0.36861444    -0.32520
C2307       C  0.54097259  0.59941164  0.36354828     0.36730
C2308       C  0.53394680  0.60363321  0.34568065    -0.05450
C2309       C  0.54523707  0.61351832  0.33309836    -0.32420
C2310       C  0.56339309  0.61908011  0.33816027     0.36640
H2311       H  0.56426800  0.60120854  0.38235014     0.17010
O2312       O  0.53056259  0.58913582  0.37586718    -0.59910
H2313       H  0.54007158  0.61658414  0.31917791     0.17020
O2314       O  0.57398627  0.62877062  0.32554575    -0.60010
H2315       H  0.57155137  0.64214644  0.32835631     0.44020
H2316       H  0.53356981  0.57589272  0.37295832     0.43980
C2317       C  0.65135100  0.53751205  0.40166288    -0.05090
C2318       C  0.64721042  0.55121790  0.41523059    -0.32520
C2319       C  0.64118333  0.56914347  0.41012974     0.36730
C2320       C  0.63903337  0.57375959  0.39110731    -0.05450
C2321       C  0.64275983  0.55995646  0.37753124    -0.32420
C2322       C  0.64884884  0.54200429  0.38263776     0.36640
H2323       H  0.64882204  0.54807762  0.42995903     0.17010
O2324       O  0.63799446  0.58215738  0.42389343    -0.59910
H2325       H  0.64133005  0.56316424  0.36280052     0.17020
O2326       O  0.65348500  0.52940968  0.36888262    -0.60010
H2327       H  0.64139479  0.52531113  0.36342000     0.44020
H2328       H  0.62473111  0.58043379  0.42753493     0.43980
C2329       C  0.71426871  0.40271050  0.59753097    -0.05090
C2330       C  0.71107092  0.39995180  0.61671986    -0.32520
C2331       C  0.69319212  0.39525654  0.62325142     0.36730
C2332       C  0.67822607  0.39345681  0.61058081    -0.05450
C2333       C  0.68147794  0.39550254  0.59142556    -0.32420
C2334       C  0.69933443  0.39999092  0.58481736     0.36640
H2335       H  0.72232966  0.40192601  0.62670368     0.17010
O2336       O  0.69047728  0.39242398  0.64200382    -0.59910
H2337       H  0.67016983  0.39335589  0.58151811     0.17020
O2338       O  0.70227903  0.40097161  0.56587536    -0.60010
H2339       H  0.69481456  0.41183762  0.56148867     0.44020
H2340       H  0.68644396  0.40472902  0.64702953     0.43980
C2341       C  0.85111875  0.59795081  0.46435698    -0.05090
C2342       C  0.85417609  0.58426752  0.45046353    -0.32520
C2343       C  0.85967301  0.58916013  0.43235218     0.36730
C2344       C  0.86274918  0.60803949  0.42783133    -0.05450
C2345       C  0.86033888  0.62167801  0.44186454    -0.32420
C2346       C  0.85456982  0.61681025  0.45994026     0.36640
H2347       H  0.85190111  0.56963567  0.45353513     0.17010
O2348       O  0.86165895  0.57535039  0.41914747    -0.59910
H2349       H  0.86248314  0.63631626  0.43873021     0.17020
O2350       O  0.85109790  0.63073066  0.47272313    -0.60010
H2351       H  0.86360034  0.63530537  0.47664816     0.44020
H2352       H  0.84901226  0.57378520  0.41360944     0.43980
C2353       C  0.74921843  0.47560903  0.53059019    -0.05090
C2354       C  0.73646549  0.47683620  0.54536614    -0.32520
C2355       C  0.73680485  0.46362152  0.55974316     0.36730
C2356       C  0.74973208  0.44860764  0.55911762    -0.05450
C2357       C  0.76254411  0.44761545  0.54423940    -0.32420
C2358       C  0.76242162  0.46104300  0.53014505     0.36640
H2359       H  0.72642125  0.48822061  0.54586784     0.17010
O2360       O  0.72461395  0.46568261  0.57439465    -0.59910
H2361       H  0.77246849  0.43616173  0.54328631     0.17020
O2362       O  0.77521516  0.45979869  0.51591777    -0.60010
H2363       H  0.76886830  0.45257037  0.50590408     0.44020
H2364       H  0.73182643  0.47227450  0.58425882     0.43980
C2365       C  0.77862493  0.53060759  0.50014643    -0.05090
C2366       C  0.77421500  0.54894221  0.49453205    -0.32520
C2367       C  0.78798180  0.56273935  0.49405137     0.36730
C2368       C  0.80636814  0.55840804  0.49952680    -0.05450
C2369       C  0.81091208  0.54022399  0.50510414    -0.32420
C2370       C  0.79730798  0.52626536  0.50513842     0.36640
H2371       H  0.76000091  0.55269590  0.49074970     0.17010
O2372       O  0.78334128  0.58044209  0.48831782    -0.59910
H2373       H  0.82514850  0.53679342  0.50914431     0.17020
O2374       O  0.80255526  0.50839395  0.50973686    -0.60010
H2375       H  0.80484458  0.50199791  0.49762757     0.44020
H2376       H  0.78007878  0.58733070  0.49992508     0.43980
C2377       C  0.72149920  0.50144027  0.47185981    -0.05090
C2378       C  0.72690880  0.50344352  0.45307491    -0.32520
C2379       C  0.71353507  0.50366068  0.43877814     0.36730
C2380       C  0.69449731  0.50179570  0.44314535    -0.05450
C2381       C  0.68898686  0.49963732  0.46176922    -0.32420
C2382       C  0.70230152  0.49961488  0.47612954     0.36640
H2383       H  0.74155838  0.50475625  0.44945245     0.17010
O2384       O  0.71914994  0.50588678  0.42059754    -0.59910
H2385       H  0.67428800  0.49823183  0.46517649     0.17020
O2386       O  0.69633837  0.49824614  0.49428640    -0.60010
H2387       H  0.69526813  0.51132064  0.49882275     0.44020
H2388       H  0.72069722  0.49302087  0.41561458     0.43980
C2389       C  0.82116672  0.38824015  0.60765432    -0.05090
C2390       C  0.81798363  0.39381936  0.58914126    -0.32520
C2391       C  0.80029258  0.40004776  0.58334758     0.36730
C2392       C  0.78531804  0.40122953  0.59625525    -0.05450
C2393       C  0.78832237  0.39484171  0.61457021    -0.32420
C2394       C  0.80594677  0.38824351  0.62024945     0.36640
H2395       H  0.82933153  0.39363379  0.57912026     0.17010
O2396       O  0.79789062  0.40502446  0.56498662    -0.59910
H2397       H  0.77711591  0.39543272  0.62472906     0.17020
O2398       O  0.80816479  0.38219386  0.63829873    -0.60010
H2399       H  0.80587893  0.36853533  0.63779174     0.44020
H2400       H  0.79228959  0.39392117  0.55885021     0.43980
C2401       C  0.85745805  0.61305695  0.57202544    -0.05090
C2402       C  0.87121991  0.60900215  0.55852224    -0.32520
C2403       C  0.86630514  0.60315643  0.54044192     0.36730
C2404       C  0.84730608  0.60151156  0.53539825    -0.05450
C2405       C  0.83356018  0.60611770  0.54874131    -0.32420
C2406       C  0.83846621  0.61177073  0.56686634     0.36640
H2407       H  0.88593517  0.60987704  0.56210582     0.17010
O2408       O  0.88021385  0.59839668  0.52810794    -0.59910
H2409       H  0.81885025  0.60507979  0.54517037     0.17020
O2410       O  0.82453566  0.61543146  0.57953190    -0.60010
H2411       H  0.82148531  0.62886306  0.57789877     0.44020
H2412       H  0.88208789  0.58475151  0.52970695     0.43980
C2413       C  0.90293945  0.15283486  0.53660696    -0.05090
C2414       C  0.89629677  0.13449167  0.53897541    -0.32520
C2415       C  0.89123819  0.12791959  0.55672579     0.36730
C2416       C  0.89330097  0.13949269  0.57252275    -0.05450
C2417       C  0.89964238  0.15778040  0.57028206    -0.32420
C2418       C  0.90410433  0.16464285  0.55253479     0.36640
H2419       H  0.89519493  0.12512941  0.52709499     0.17010
O2420       O  0.88425076  0.11019045  0.55849474    -0.59910
H2421       H  0.90046188  0.16704592  0.58228277     0.17020
O2422       O  0.90836621  0.18325440  0.55075789    -0.60010
H2423       H  0.92018780  0.18510342  0.55783341     0.44020
H2424       H  0.89524661  0.10221107  0.56143781     0.43980
C2425       C  0.96427310  0.35030015  0.59631376    -0.05090
C2426       C  0.96082098  0.35432614  0.61521621    -0.32520
C2427       C  0.94315504  0.36054322  0.62112416     0.36730
C2428       C  0.92838199  0.36264558  0.60808215    -0.05450
C2429       C  0.93206798  0.35943337  0.58909330    -0.32420
C2430       C  0.94976938  0.35335481  0.58315291     0.36640
H2431       H  0.97170165  0.35214841  0.62557175     0.17010
O2432       O  0.94043420  0.36407063  0.63978327    -0.59910
H2433       H  0.92111248  0.36135831  0.57876283     0.17020
O2434       O  0.95293224  0.35096053  0.56436392    -0.60010
H2435       H  0.94507644  0.34019870  0.56052315     0.44020
H2436       H  0.94339202  0.37750764  0.64145284     0.43980
C2437       C  0.00052847  0.27691069  0.52865655    -0.05090
C2438       C  0.98709180  0.29114784  0.52788071    -0.32520
C2439       C  0.98680214  0.30527894  0.54139188     0.36730
C2440       C  0.99972802  0.30491995  0.55641552    -0.05450
C2441       C  0.01310965  0.29042892  0.55713369    -0.32420
C2442       C  0.01366772  0.27660712  0.54327683     0.36640
H2443       H  0.97706152  0.29152657  0.51648664     0.17010
O2444       O  0.97414031  0.31960480  0.53942577    -0.59910
H2445       H  0.02312231  0.28972648  0.56851191     0.17020
O2446       O  0.02712771  0.26289993  0.54407659    -0.60010
H2447       H  0.02120921  0.25240611  0.55084864     0.44020
H2448       H  0.98108760  0.32973078  0.53308521     0.43980
C2449       C  0.02803582  0.25010620  0.47071345    -0.05090
C2450       C  0.02413516  0.25972469  0.45412703    -0.32520
C2451       C  0.03719584  0.25989127  0.43961094     0.36730
C2452       C  0.05441397  0.25041145  0.44174140    -0.05450
C2453       C  0.05812488  0.24067737  0.45838576    -0.32420
C2454       C  0.04506202  0.24052112  0.47283398     0.36640
H2455       H  0.01089734  0.26698396  0.45242082     0.17010
O2456       O  0.03293229  0.26916499  0.42338401    -0.59910
H2457       H  0.07133339  0.23341881  0.46030303     0.17020
O2458       O  0.04891119  0.23077328  0.48888425    -0.60010
H2459       H  0.05466413  0.24000913  0.49750341     0.44020
H2460       H  0.02771050  0.25950646  0.41489302     0.43980
C2461       C  0.97284434  0.22038566  0.49937465    -0.05090
C2462       C  0.95583061  0.22371695  0.49025387    -0.32520
C2463       C  0.94200948  0.21000083  0.48987692     0.36730
C2464       C  0.94525954  0.19261082  0.49858251    -0.05450
C2465       C  0.96243136  0.18931473  0.50762625    -0.32420
C2466       C  0.97623841  0.20308634  0.50797713     0.36640
H2467       H  0.95321237  0.23706604  0.48359855     0.17010
O2468       O  0.92520460  0.21390686  0.48138801    -0.59910
H2469       H  0.96511061  0.17605634  0.51442593     0.17020
O2470       O  0.99284419  0.19969807  0.51704880    -0.60010
H2471       H  0.00139929  0.19478682  0.50728231     0.44020
H2472       H  0.91695227  0.21850671  0.49155613     0.43980
C2473       C  0.39903504  0.15508212  0.96449774    -0.05090
C2474       C  0.39658701  0.13601773  0.96059948    -0.32520
C2475       C  0.39059171  0.13000582  0.94291962     0.36730
C2476       C  0.38708117  0.14313662  0.92858598    -0.05450
C2477       C  0.38873485  0.16223926  0.93273351    -0.32420
C2478       C  0.39463599  0.16826421  0.95046752     0.36640
H2479       H  0.39988850  0.12565414  0.97112954     0.17010
O2480       O  0.38875089  0.11119100  0.93972331    -0.59910
H2481       H  0.38570262  0.17260230  0.92212506     0.17020
O2482       O  0.39556625  0.18708922  0.95413925    -0.60010
H2483       H  0.40590583  0.19186715  0.94627554     0.44020
H2484       H  0.37562337  0.10827712  0.94308018     0.43980
C2485       C  0.53527888  0.34904926  0.09891764    -0.05090
C2486       C  0.53872155  0.36791485  0.10306084    -0.32520
C2487       C  0.55645471  0.37379290  0.10903435     0.36730
C2488       C  0.57128103  0.36075374  0.11077454    -0.05450
C2489       C  0.56766017  0.34181729  0.10727411    -0.32420
C2490       C  0.54990759  0.33590793  0.10142530     0.36640
H2491       H  0.52773557  0.37824579  0.10127685     0.17010
O2492       O  0.55914987  0.39239700  0.11280214    -0.59910
H2493       H  0.57868013  0.33149154  0.10888682     0.17020
O2494       O  0.54680212  0.31714625  0.09884059    -0.60010
H2495       H  0.55427106  0.31354466  0.08770765     0.44020
H2496       H  0.55633695  0.39386349  0.12630466     0.43980
C2497       C  0.42798757  0.36131167  0.10985895    -0.05090
C2498       C  0.43800518  0.37170161  0.09667051    -0.32520
C2499       C  0.45632909  0.36658161  0.09183315     0.36730
C2500       C  0.46464458  0.35063559  0.09985498    -0.05450
C2501       C  0.45466281  0.34025337  0.11303804    -0.32420
C2502       C  0.43653892  0.34564172  0.11826290     0.36640
H2503       H  0.43165346  0.38386061  0.09021301     0.17010
O2504       O  0.46573631  0.37677207  0.07867913    -0.59910
H2505       H  0.46078956  0.32771042  0.11895876     0.17020
O2506       O  0.42685369  0.33484480  0.13072299    -0.60010
H2507       H  0.43083551  0.33929097  0.14325978     0.44020
H2508       H  0.47332356  0.38584988  0.08593087     0.43980
C2509       C  0.49854689  0.28113892  0.02713754    -0.05090
C2510       C  0.48445438  0.29478088  0.02734686    -0.32520
C2511       C  0.48444392  0.30886605  0.04095138     0.36730
C2512       C  0.49836145  0.30901917  0.05506050    -0.05450
C2513       C  0.51233923  0.29507696  0.05480506    -0.32420
C2514       C  0.51259720  0.28136172  0.04087616     0.36640
H2515       H  0.47365625  0.29471712  0.01667117     0.17010
O2516       O  0.47101924  0.32259049  0.03999991    -0.59910
H2517       H  0.52304393  0.29464871  0.06555239     0.17020
O2518       O  0.52659444  0.26817388  0.04082716    -0.60010
H2519       H  0.52157804  0.25752867  0.04807739     0.44020
H2520       H  0.47697392  0.33301481  0.03315367     0.43980
C2521       C  0.47061920  0.22342632  0.99964889    -0.05090
C2522       C  0.47607805  0.20474101  0.99663391    -0.32520
C2523       C  0.46284583  0.19040876  0.99672589     0.36730
C2524       C  0.44393382  0.19466147  0.99994164    -0.05450
C2525       C  0.43838687  0.21318912  0.00301843    -0.32420
C2526       C  0.45152639  0.22757894  0.00271258     0.36640
H2527       H  0.49065897  0.20122247  0.99433732     0.17010
O2528       O  0.46846000  0.17233050  0.99348750    -0.59910
H2529       H  0.42375981  0.21651080  0.00535466     0.17020
O2530       O  0.44547028  0.24566045  0.00499659    -0.60010
H2531       H  0.44365872  0.25051809  0.99214441     0.44020
H2532       H  0.47074427  0.16695257  0.00605549     0.43980
C2533       C  0.59858444  0.28590041  0.90119125    -0.05090
C2534       C  0.59239363  0.29271266  0.88384242    -0.32520
C2535       C  0.59698375  0.31086384  0.87806581     0.36730
C2536       C  0.60809491  0.32233448  0.88960144    -0.05450
C2537       C  0.61467058  0.31531355  0.90672187    -0.32420
C2538       C  0.60966896  0.29739409  0.91271411     0.36640
H2539       H  0.58359817  0.28409831  0.87498751     0.17010
O2540       O  0.59069273  0.31719771  0.86109005    -0.59910
H2541       H  0.62332624  0.32395062  0.91569991     0.17020
O2542       O  0.61566044  0.29119563  0.92985567    -0.60010
H2543       H  0.60638410  0.29614367  0.93892572     0.44020
H2544       H  0.60063580  0.31371348  0.85205995     0.43980
C2545       C  0.55473052  0.25135372  0.94266925    -0.05090
C2546       C  0.54127563  0.26581158  0.94290032    -0.32520
C2547       C  0.52748336  0.26654762  0.95672702     0.36730
C2548       C  0.52661458  0.25244488  0.97029586    -0.05450
C2549       C  0.53978769  0.23794016  0.97011194    -0.32420
C2550       C  0.55400640  0.23751114  0.95675866     0.36640
H2551       H  0.54130117  0.27654353  0.93226406     0.17010
O2552       O  0.51486813  0.28105659  0.95683569    -0.59910
H2553       H  0.53933244  0.22716246  0.98071522     0.17020
O2554       O  0.56737945  0.22376926  0.95803896    -0.60010
H2555       H  0.57792949  0.22954482  0.96496474     0.44020
H2556       H  0.50395894  0.27648226  0.94956965     0.43980
C2557       C  0.13633384  0.07301850  0.39194574    -0.05090
C2558       C  0.13879172  0.06886867  0.41095874    -0.32520
C2559       C  0.14495381  0.05111623  0.41664480     0.36730
C2560       C  0.14878615  0.03709255  0.40320306    -0.05450
C2561       C  0.14550136  0.04099810  0.38427162    -0.32420
C2562       C  0.13926267  0.05866960  0.37860220     0.36640
H2563       H  0.13625542  0.07950140  0.42148553     0.17010
O2564       O  0.14673116  0.04743380  0.43539759    -0.59910
H2565       H  0.14836968  0.03048262  0.37371012     0.17020
O2566       O  0.13669218  0.06186189  0.35986937    -0.60010
H2567       H  0.12339183  0.05876064  0.35739918     0.44020
H2568       H  0.15730755  0.05524232  0.43982696     0.43980
C2569       C  0.11351292  0.18027750  0.39336020    -0.05090
C2570       C  0.11180429  0.19457764  0.37999542    -0.32520
C2571       C  0.10622797  0.21266693  0.38514344     0.36730
C2572       C  0.10227633  0.21680693  0.40399709    -0.05450
C2573       C  0.10491527  0.20273210  0.41748263    -0.32420
C2574       C  0.11024661  0.18459162  0.41230303     0.36640
H2575       H  0.11421643  0.19162652  0.36532662     0.17010
O2576       O  0.10326812  0.22573085  0.37144180    -0.59910
H2577       H  0.10222610  0.20564678  0.43211177     0.17020
O2578       O  0.11177013  0.17114632  0.42585275    -0.60010
H2579       H  0.09897654  0.16599522  0.42721067     0.44020
H2580       H  0.11592594  0.22997013  0.36774208     0.43980
C2581       C  0.03505948  0.10313543  0.34542093    -0.05090
C2582       C  0.05043144  0.09069234  0.34455012    -0.32520
C2583       C  0.06849424  0.09642561  0.34920605     0.36730
C2584       C  0.07158380  0.11472676  0.35545676    -0.05450
C2585       C  0.05640569  0.12716495  0.35695686    -0.32420
C2586       C  0.03828005  0.12162822  0.35163303     0.36640
H2587       H  0.04847254  0.07626558  0.34036407     0.17010
O2588       O  0.08302178  0.08386175  0.34801334    -0.59910
H2589       H  0.05868013  0.14128204  0.36198016     0.17020
O2590       O  0.02403097  0.13450156  0.35225600    -0.60010
H2591       H  0.02325832  0.13969336  0.33943646     0.44020
H2592       H  0.08402776  0.07821020  0.36062456     0.43980
C2593       C  0.99876616  0.03047685  0.27740466    -0.05090
C2594       C  0.01536427  0.03449000  0.28725309    -0.32520
C2595       C  0.01560296  0.04732539  0.30196398     0.36730
C2596       C  0.99944326  0.05796942  0.30615629    -0.05450
C2597       C  0.98292152  0.05426957  0.29607646    -0.32420
C2598       C  0.98229271  0.04031435  0.28233818     0.36640
H2599       H  0.02836731  0.02748798  0.28381093     0.17010
O2600       O  0.03166814  0.04886465  0.31239411    -0.59910
H2601       H  0.97022315  0.06209258  0.29884396     0.17020
O2602       O  0.96525937  0.03569935  0.27473174    -0.60010
H2603       H  0.96119730  0.04679397  0.26745893     0.44020
H2604       H  0.02963241  0.04084828  0.32348516     0.43980
C2605       C  0.09532655  0.89966475  0.28436868    -0.05090
C2606       C  0.08185767  0.89706136  0.29845753    -0.32520
C2607       C  0.08706710  0.89197045  0.31662217     0.36730
C2608       C  0.10605455  0.88888474  0.32100478    -0.05450
C2609       C  0.11947491  0.89074051  0.30675325    -0.32420
C2610       C  0.11427025  0.89606422  0.28859445     0.36640
H2611       H  0.06716238  0.89947349  0.29550252     0.17010
O2612       O  0.07346396  0.89043158  0.33001898    -0.59910
H2613       H  0.13418151  0.88848652  0.30976491     0.17020
O2614       O  0.12794179  0.89896552  0.27550261    -0.60010
H2615       H  0.13194515  0.88630076  0.27143199     0.44020
H2616       H  0.07201923  0.90319431  0.33530359     0.43980
C2617       C  0.05554702  0.94496601  0.24993745    -0.05090
C2618       C  0.06005004  0.96342847  0.25448160    -0.32520
C2619       C  0.04619722  0.97726917  0.25443367     0.36730
C2620       C  0.02745006  0.97255478  0.25022364    -0.05450
C2621       C  0.02304043  0.95393776  0.24583808    -0.32420
C2622       C  0.03697045  0.94019616  0.24563954     0.36640
H2623       H  0.07439358  0.96715258  0.25769962     0.17010
O2624       O  0.05122891  0.99541395  0.25804610    -0.59910
H2625       H  0.00875377  0.95002197  0.24262260     0.17020
O2626       O  0.03236001  0.92214203  0.24111466    -0.60010
H2627       H  0.03008402  0.91588764  0.25324741     0.44020
H2628       H  0.05322584  0.00112291  0.24559613     0.43980
C2629       C  0.94400036  0.00139913  0.19161045    -0.05090
C2630       C  0.95804264  0.01515202  0.19097850    -0.32520
C2631       C  0.97218625  0.01576035  0.20452156     0.36730
C2632       C  0.97273094  0.00224636  0.21868549    -0.05450
C2633       C  0.95894416  0.98843008  0.21933611    -0.32420
C2634       C  0.94445509  0.98812111  0.20620803     0.36640
H2635       H  0.95816123  0.02542590  0.17989552     0.17010
O2636       O  0.98539073  0.02959751  0.20382415    -0.59910
H2637       H  0.95912690  0.97815420  0.23044021     0.17020
O2638       O  0.93056019  0.97511008  0.20818135    -0.60010
H2639       H  0.92045241  0.98161851  0.21514176     0.44020
H2640       H  0.99594278  0.02416021  0.19661858     0.43980
C2641       C  0.92729750  0.10747291  0.36304571    -0.05090
C2642       C  0.94250508  0.10901231  0.37542251    -0.32520
C2643       C  0.96062067  0.10363734  0.36984000     0.36730
C2644       C  0.96381306  0.09736051  0.35134235    -0.05450
C2645       C  0.94841633  0.09649742  0.33895136    -0.32420
C2646       C  0.93036024  0.10115944  0.34474736     0.36640
H2647       H  0.94025505  0.11406186  0.38954473     0.17010
O2648       O  0.97487933  0.10425935  0.38268532    -0.59910
H2649       H  0.95033823  0.09230549  0.32451173     0.17020
O2650       O  0.91581056  0.09991852  0.33223631    -0.60010
H2651       H  0.91478705  0.11249788  0.32652599     0.44020
H2652       H  0.97563989  0.09146015  0.38791829     0.43980
C2653       C  0.82176263  0.10698890  0.38779357    -0.05090
C2654       C  0.81929142  0.09901627  0.40538899    -0.32520
C2655       C  0.80143353  0.09426009  0.41169596     0.36730
C2656       C  0.78559816  0.09667879  0.39991729    -0.05450
C2657       C  0.78820846  0.10474292  0.38219290    -0.32420
C2658       C  0.80609390  0.11013666  0.37624241     0.36640
H2659       H  0.83118816  0.09725231  0.41467299     0.17010
O2660       O  0.79946793  0.08855401  0.42990184    -0.59910
H2661       H  0.77641327  0.10682354  0.37287940     0.17020
O2662       O  0.80812039  0.11848379  0.35913544    -0.60010
H2663       H  0.81121948  0.10815916  0.35037312     0.44020
H2664       H  0.80605332  0.07634305  0.43073261     0.43980
C2665       C  0.88460933  0.14515895  0.42924675    -0.05090
C2666       C  0.88688248  0.13168429  0.44339206    -0.32520
C2667       C  0.89278019  0.13673843  0.46140738     0.36730
C2668       C  0.89628434  0.15562168  0.46573558    -0.05450
C2669       C  0.89306852  0.16919894  0.45185659    -0.32420
C2670       C  0.88736270  0.16412459  0.43378062     0.36640
H2671       H  0.88476524  0.11700323  0.44032795     0.17010
O2672       O  0.89600811  0.12296948  0.47433491    -0.59910
H2673       H  0.89554648  0.18383288  0.45488531     0.17020
O2674       O  0.88539426  0.17776834  0.42049279    -0.60010
H2675       H  0.87220548  0.18202265  0.42150229     0.44020
H2676       H  0.90940835  0.11959008  0.47290214     0.43980
C2677       C  0.85979500  0.92921775  0.60780845    -0.05090
C2678       C  0.84966520  0.94058070  0.62034361    -0.32520
C2679       C  0.84372410  0.95852741  0.61520330     0.36730
C2680       C  0.84811199  0.96550486  0.59741640    -0.05450
C2681       C  0.85852313  0.95436981  0.58499593    -0.32420
C2682       C  0.86447995  0.93640781  0.59011053     0.36640
H2683       H  0.84587406  0.93535195  0.63401469     0.17010
O2684       O  0.83310775  0.96889719  0.62740935    -0.59910
H2685       H  0.86186382  0.95958163  0.57119682     0.17020
O2686       O  0.87476923  0.92601061  0.57766282    -0.60010
H2687       H  0.88802738  0.92869978  0.58078020     0.44020
H2688       H  0.81993065  0.96592572  0.62420414     0.43980
C2689       C  0.96528372  0.65562144  0.39460694    -0.05090
C2690       C  0.95169475  0.66899993  0.38954607    -0.32520
C2691       C  0.93349473  0.66362505  0.38449951     0.36730
C2692       C  0.92855772  0.64456317  0.38441886    -0.05450
C2693       C  0.94240470  0.63118052  0.38861171    -0.32420
C2694       C  0.96050741  0.63653595  0.39379246     0.36640
H2695       H  0.95504624  0.68374776  0.39001275     0.17010
O2696       O  0.92052635  0.67718637  0.38036353    -0.59910
H2697       H  0.93904386  0.61642789  0.38856167     0.17020
O2698       O  0.97309582  0.62298452  0.39903727    -0.60010
H2699       H  0.97153553  0.62169237  0.41274971     0.44020
H2700       H  0.92160050  0.67914586  0.36668786     0.43980
C2701       C  0.09637626  0.85476610  0.46492169    -0.05090
C2702       C  0.08266891  0.86003261  0.45173559    -0.32520
C2703       C  0.08759948  0.86513146  0.43349357     0.36730
C2704       C  0.10655807  0.86521056  0.42811434    -0.05450
C2705       C  0.12028384  0.86070314  0.44150012    -0.32420
C2706       C  0.11537676  0.85549001  0.45968154     0.36640
H2707       H  0.06798225  0.85980553  0.45545258     0.17010
O2708       O  0.07370353  0.86939332  0.42092935    -0.59910
H2709       H  0.13496596  0.86063591  0.43774069     0.17020
O2710       O  0.12921041  0.84971304  0.47171716    -0.60010
H2711       H  0.13559484  0.86131048  0.47583574     0.44020
H2712       H  0.07163543  0.88304450  0.42229061     0.43980
C2713       C  0.90217777  0.71473011  0.60014575    -0.05090
C2714       C  0.89726004  0.71160722  0.61888550    -0.32520
C2715       C  0.89250143  0.69359187  0.62496743     0.36730
C2716       C  0.89283546  0.67848560  0.61230506    -0.05450
C2717       C  0.89737345  0.68161618  0.59359986    -0.32420
C2718       C  0.90169869  0.69956244  0.58740288     0.36640
H2719       H  0.89740392  0.72305078  0.62884407     0.17010
O2720       O  0.88753373  0.69087208  0.64326290    -0.59910
H2721       H  0.89706948  0.67016094  0.58364026     0.17020
O2722       O  0.90518561  0.70217392  0.56873951    -0.60010
H2723       H  0.89314901  0.70657306  0.56335096     0.44020
H2724       H  0.89925443  0.68706444  0.64969331     0.43980
C2725       C  0.89502336  0.78522058  0.59516161    -0.05090
C2726       C  0.89197210  0.79921227  0.58164080    -0.32520
C2727       C  0.88732531  0.81756578  0.58684074     0.36730
C2728       C  0.88502556  0.82220718  0.60585526    -0.05450
C2729       C  0.88707174  0.80802939  0.61929209    -0.32420
C2730       C  0.89204373  0.78975571  0.61413937     0.36640
H2731       H  0.89379925  0.79608928  0.56692649     0.17010
O2732       O  0.88552193  0.83089203  0.57320792    -0.59910
H2733       H  0.88535289  0.81119877  0.63401513     0.17020
O2734       O  0.89537611  0.77686977  0.62792557    -0.60010
H2735       H  0.88282046  0.77296638  0.63228575     0.44020
H2736       H  0.89832397  0.83587850  0.57139610     0.43980
C2737       C  0.97189425  0.75171312  0.52954505    -0.05090
C2738       C  0.96379133  0.73476886  0.53520248    -0.32520
C2739       C  0.94948400  0.73424713  0.54846063     0.36730
C2740       C  0.94425316  0.75067284  0.55831690    -0.05450
C2741       C  0.95313710  0.76748305  0.55337221    -0.32420
C2742       C  0.96574512  0.76831115  0.53850287     0.36640
H2743       H  0.96811918  0.72158834  0.52914809     0.17010
O2744       O  0.93986573  0.71781506  0.55045395    -0.59910
H2745       H  0.95006863  0.78042269  0.56058166     0.17020
O2746       O  0.97120867  0.78563270  0.53252934    -0.60010
H2747       H  0.96283460  0.78860404  0.52185216     0.44020
H2748       H  0.94893659  0.70877926  0.55588016     0.43980
C2749       C  0.99983889  0.72130409  0.47220834    -0.05090
C2750       C  0.98278571  0.71296123  0.46688733    -0.32520
C2751       C  0.98214399  0.69817364  0.45401540     0.36730
C2752       C  0.99856841  0.69247671  0.44453976    -0.05450
C2753       C  0.01554452  0.70111951  0.44961614    -0.32420
C2754       C  0.01643777  0.71438894  0.46391934     0.36640
H2755       H  0.96963929  0.71767755  0.47271649     0.17010
O2756       O  0.96558262  0.68875741  0.45178370    -0.59910
H2757       H  0.02852155  0.69758268  0.44268725     0.17020
O2758       O  0.03380016  0.71995241  0.46990227    -0.60010
H2759       H  0.03654136  0.71218896  0.48104913     0.44020
H2760       H  0.95665052  0.69792053  0.44634379     0.43980
C2761       C  0.02895146  0.78019974  0.49917345    -0.05090
C2762       C  0.03426464  0.78912701  0.51595654    -0.32520
C2763       C  0.04715840  0.80375862  0.51624680     0.36730
C2764       C  0.05709491  0.80849438  0.49986874    -0.05450
C2765       C  0.05223536  0.79920509  0.48315904    -0.32420
C2766       C  0.03777547  0.78606566  0.48249053     0.36640
H2767       H  0.02835029  0.78514705  0.52922771     0.17010
O2768       O  0.04878739  0.81413651  0.53235587    -0.59910
H2769       H  0.05937438  0.80215985  0.47021028     0.17020
O2770       O  0.03163546  0.78017804  0.46525425    -0.60010
H2771       H  0.04225047  0.77314544  0.45965752     0.44020
H2772       H  0.05377338  0.80546648  0.54198147     0.43980
C2773       C  0.11413512  0.85891063  0.57132749    -0.05090
C2774       C  0.11543534  0.83999074  0.56619763    -0.32520
C2775       C  0.11067569  0.83410232  0.54807800     0.36730
C2776       C  0.10417135  0.84716924  0.53475195    -0.05450
C2777       C  0.10360299  0.86614958  0.53968384    -0.32420
C2778       C  0.10846841  0.87206484  0.55770165     0.36640
H2779       H  0.12000776  0.82967513  0.57629943     0.17010
O2780       O  0.11225276  0.81549985  0.54363691    -0.59910
H2781       H  0.09856447  0.87643304  0.52976292     0.17020
O2782       O  0.10728486  0.89076682  0.56185665    -0.60010
H2783       H  0.09412588  0.89287219  0.56575414     0.44020
H2784       H  0.12450688  0.81424898  0.53726525     0.43980
C2785       C  0.17783668  0.89583544  0.61257424    -0.05090
C2786       C  0.18006639  0.90367041  0.59490028    -0.32520
C2787       C  0.19780788  0.90857076  0.58835613     0.36730
C2788       C  0.21383127  0.90658317  0.60002185    -0.05450
C2789       C  0.21145457  0.89850864  0.61780400    -0.32420
C2790       C  0.19367821  0.89284190  0.62392799     0.36640
H2791       H  0.16805262  0.90522341  0.58572817     0.17010
O2792       O  0.19946209  0.91396619  0.57002016    -0.59910
H2793       H  0.22331786  0.89663628  0.62706285     0.17020
O2794       O  0.19193710  0.88435245  0.64099660    -0.60010
H2795       H  0.18874862  0.89456615  0.64985476     0.44020
H2796       H  0.19246399  0.92593236  0.56896972     0.43980
C2797       C  0.71435215  0.34709986  0.14777086    -0.05090
C2798       C  0.71022654  0.36623966  0.14635817    -0.32520
C2799       C  0.69253841  0.37242881  0.14058586     0.36730
C2800       C  0.67831132  0.35940992  0.13633735    -0.05450
C2801       C  0.68265241  0.34026593  0.13689704    -0.32420
C2802       C  0.70047859  0.33405318  0.14249670     0.36640
H2803       H  0.72056883  0.37653894  0.15038621     0.17010
O2804       O  0.68919867  0.39130212  0.13980343    -0.59910
H2805       H  0.67213628  0.33001615  0.13321554     0.17020
O2806       O  0.70438347  0.31524432  0.14226583    -0.60010
H2807       H  0.69616136  0.30964052  0.15188071     0.44020
H2808       H  0.69274700  0.39501946  0.12694662     0.43980
C2809       C  0.86231675  0.14371504  0.32172555    -0.05090
C2810       C  0.85924331  0.12991263  0.30797929    -0.32520
C2811       C  0.85328053  0.13465797  0.28988943     0.36730
C2812       C  0.85026048  0.15353851  0.28518112    -0.05450
C2813       C  0.85390148  0.16736034  0.29877666    -0.32420
C2814       C  0.85980252  0.16261470  0.31685321     0.36640
H2815       H  0.86097434  0.11525789  0.31136668     0.17010
O2816       O  0.84917489  0.12066126  0.27739445    -0.59910
H2817       H  0.85188019  0.18199594  0.29545347     0.17020
O2818       O  0.86240009  0.17657304  0.32977796    -0.60010
H2819       H  0.87564161  0.18040095  0.32834197     0.44020
H2820       H  0.86146550  0.11558931  0.27335358     0.43980
C2821       C  0.77670641  0.22014591  0.24869707    -0.05090
C2822       C  0.79502461  0.22478626  0.24329677    -0.32520
C2823       C  0.80929183  0.21141596  0.24352021     0.36730
C2824       C  0.80544595  0.19314200  0.24939306    -0.05450
C2825       C  0.78723027  0.18831320  0.25464075    -0.32420
C2826       C  0.77281208  0.20159185  0.25408118     0.36640
H2827       H  0.79841492  0.23895699  0.23926684     0.17010
O2828       O  0.82700021  0.21634980  0.23811200    -0.59910
H2829       H  0.78415326  0.17413094  0.25888626     0.17020
O2830       O  0.75498900  0.19619990  0.25857606    -0.60010
H2831       H  0.74884911  0.19335637  0.24644846     0.44020
H2832       H  0.83349489  0.22007997  0.24980877     0.43980
C2833       C  0.74940631  0.30836717  0.19490746    -0.05090
C2834       C  0.76536876  0.29703514  0.19728695    -0.32520
C2835       C  0.76629564  0.28345430  0.21128611     0.36730
C2836       C  0.75047480  0.27981136  0.22253918    -0.05450
C2837       C  0.73439601  0.29098328  0.21992473    -0.32420
C2838       C  0.73401110  0.30551923  0.20689157     0.36640
H2839       H  0.77746413  0.29869625  0.18838219     0.17010
O2840       O  0.78316287  0.27477990  0.21455612    -0.59910
H2841       H  0.72189013  0.28870564  0.22807399     0.17020
O2842       O  0.71898509  0.31755431  0.20688933    -0.60010
H2843       H  0.70804816  0.30996995  0.20297187     0.44020
H2844       H  0.78582844  0.26726549  0.20317104     0.43980
C2845       C  0.65001865  0.21613324  0.34646652    -0.05090
C2846       C  0.64743958  0.20216222  0.33277338    -0.32520
C2847       C  0.64180464  0.18409900  0.33762076     0.36730
C2848       C  0.63813644  0.17973642  0.35643519    -0.05450
C2849       C  0.64017905  0.19381557  0.37006545    -0.32420
C2850       C  0.64607927  0.21182504  0.36526312     0.36640
H2851       H  0.65012056  0.20515831  0.31818669     0.17010
O2852       O  0.64020145  0.17081043  0.32384668    -0.59910
H2853       H  0.63760388  0.19078404  0.38466454     0.17020
O2854       O  0.64917128  0.22466045  0.37921872    -0.60010
H2855       H  0.63655409  0.22842631  0.38364931     0.44020
H2856       H  0.65286551  0.16518256  0.32271430     0.43980
C2857       C  0.69499371  0.25210480  0.30784462    -0.05090
C2858       C  0.71334388  0.24755191  0.31311563    -0.32520
C2859       C  0.72784125  0.24813811  0.30002662     0.36730
C2860       C  0.72390824  0.25293354  0.28128965    -0.05450
C2861       C  0.70544794  0.25758593  0.27618597    -0.32420
C2862       C  0.69107214  0.25725387  0.28932946     0.36640
H2863       H  0.71644022  0.24379501  0.32746538     0.17010
O2864       O  0.74576697  0.24422592  0.30575050    -0.59910
H2865       H  0.70206682  0.26111919  0.26184264     0.17020
O2866       O  0.67319668  0.26187095  0.28395489    -0.60010
H2867       H  0.66723145  0.24984568  0.28050804     0.44020
H2868       H  0.75147930  0.25655906  0.30843418     0.43980
C2869       C  0.64066915  0.88881392  0.42782325    -0.05090
C2870       C  0.65874793  0.88422953  0.43413127    -0.32520
C2871       C  0.66451085  0.88887453  0.45231105     0.36730
C2872       C  0.65216015  0.89823815  0.46451984    -0.05450
C2873       C  0.63398233  0.90243669  0.45843396    -0.32420
C2874       C  0.62823667  0.89797123  0.44022677     0.36640
H2875       H  0.66849812  0.87714763  0.42491207     0.17010
O2876       O  0.68241956  0.88466330  0.45788069    -0.59910
H2877       H  0.62449903  0.91002490  0.46754294     0.17020
O2878       O  0.61062907  0.90321243  0.43455118    -0.60010
H2879       H  0.61216182  0.91580737  0.42901508     0.44020
H2880       H  0.68140251  0.87266474  0.46469840     0.43980
C2881       C  0.63760462  0.89562752  0.57192717    -0.05090
C2882       C  0.62565521  0.89319823  0.55653543    -0.32520
C2883       C  0.63137455  0.89820360  0.53846483     0.36730
C2884       C  0.64977269  0.90481632  0.53539400    -0.05450
C2885       C  0.66176446  0.90666049  0.55103916    -0.32420
C2886       C  0.65567687  0.90256668  0.56910959     0.36640
H2887       H  0.61169704  0.88771550  0.55859768     0.17010
O2888       O  0.61869225  0.89685314  0.52411375    -0.59910
H2889       H  0.67613669  0.91105545  0.54937775     0.17020
O2890       O  0.66774147  0.90485793  0.58389912    -0.60010
H2891       H  0.67409784  0.89259881  0.58538712     0.44020
H2892       H  0.61311234  0.90951337  0.52296480     0.43980
C2893       C  0.59840782  0.71569989  0.40171241    -0.05090
C2894       C  0.61720631  0.71249776  0.39679698    -0.32520
C2895       C  0.62336494  0.69451499  0.39170564     0.36730
C2896       C  0.61076283  0.67945555  0.39180441    -0.05450
C2897       C  0.59202900  0.68261834  0.39632689    -0.32420
C2898       C  0.58571673  0.70054729  0.40099666     0.36640
H2899       H  0.62717300  0.72385866  0.39714037     0.17010
O2900       O  0.64166976  0.69179647  0.38660136    -0.59910
H2901       H  0.58210148  0.67121062  0.39570813     0.17020
O2902       O  0.56689812  0.70334045  0.40382937    -0.60010
H2903       H  0.56383422  0.69645573  0.41543855     0.44020
H2904       H  0.64816347  0.68771861  0.39817254     0.43980
C2905       C  0.60609419  0.82300776  0.38731669    -0.05090
C2906       C  0.60857903  0.81728978  0.40583179    -0.32520
C2907       C  0.60344409  0.79933600  0.41137408     0.36730
C2908       C  0.59621013  0.78655281  0.39817543    -0.05450
C2909       C  0.59428955  0.79206003  0.37944135    -0.32420
C2910       C  0.59904346  0.81029838  0.37400126     0.36640
H2911       H  0.61428707  0.82689278  0.41610661     0.17010
O2912       O  0.60577247  0.79423919  0.42972518    -0.59910
H2913       H  0.58867807  0.78239926  0.36918599     0.17020
O2914       O  0.59733367  0.81538471  0.35560508    -0.60010
H2915       H  0.58464034  0.82093891  0.35450398     0.44020
H2916       H  0.59536241  0.80038867  0.43657085     0.43980
C2917       C  0.53410494  0.84657528  0.60191184    -0.05090
C2918       C  0.53770368  0.86555796  0.60516861    -0.32520
C2919       C  0.55547813  0.87152525  0.61088810     0.36730
C2920       C  0.57017992  0.85842902  0.61328577    -0.05450
C2921       C  0.56629510  0.83936509  0.61101218    -0.32420
C2922       C  0.54847966  0.83338115  0.60539355     0.36640
H2923       H  0.52688822  0.87590831  0.60261096     0.17010
O2924       O  0.55840573  0.89028812  0.61349001    -0.59910
H2925       H  0.57719235  0.82902116  0.61322095     0.17020
O2926       O  0.54510421  0.81456534  0.60370369    -0.60010
H2927       H  0.55296927  0.81019427  0.59312773     0.44020
H2928       H  0.55571007  0.89260859  0.62689949     0.43980
C2929       C  0.40094463  0.65280732  0.46415099    -0.05090
C2930       C  0.38186890  0.64919986  0.46086162    -0.32520
C2931       C  0.37555630  0.64405627  0.44294640     0.36730
C2932       C  0.38831916  0.64272041  0.42805600    -0.05450
C2933       C  0.40733831  0.64568551  0.43137397    -0.32420
C2934       C  0.41375776  0.65049848  0.44923217     0.36640
H2935       H  0.37179783  0.65078020  0.47205591     0.17010
O2936       O  0.35694323  0.64033958  0.44012569    -0.59910
H2937       H  0.41732973  0.64397111  0.42010354     0.17020
O2938       O  0.43269245  0.65212222  0.45219044    -0.60010
H2939       H  0.43670666  0.66303128  0.44469050     0.44020
H2940       H  0.35135627  0.65234505  0.43597566     0.43980
C2941       C  0.52698692  0.75143951  0.47032728    -0.05090
C2942       C  0.53711512  0.76787969  0.46680107    -0.32520
C2943       C  0.55166851  0.76822981  0.45380402     0.36730
C2944       C  0.55550474  0.75230460  0.44270295    -0.05450
C2945       C  0.54499771  0.73601378  0.44585549    -0.32420
C2946       C  0.53146908  0.73523385  0.45990055     0.36640
H2947       H  0.53404322  0.78068373  0.47429805     0.17010
O2948       O  0.56277928  0.78381532  0.45307447    -0.59910
H2949       H  0.54729065  0.72353625  0.43757338     0.17020
O2950       O  0.52369256  0.71823592  0.46405615    -0.60010
H2951       H  0.51621310  0.71466311  0.45289887     0.44020
H2952       H  0.55457563  0.79405978  0.44849186     0.43980
C2953       C  0.46850766  0.72491402  0.49815968    -0.05090
C2954       C  0.47350973  0.70648548  0.49332204    -0.32520
C2955       C  0.46031702  0.69218698  0.49374525     0.36730
C2956       C  0.44188452  0.69614786  0.49922469    -0.05450
C2957       C  0.43672127  0.71443229  0.50402361    -0.32420
C2958       C  0.44983176  0.72886154  0.50331212     0.36640
H2959       H  0.48778880  0.70307966  0.48948317     0.17010
O2960       O  0.46552762  0.67437504  0.48877498    -0.59910
H2961       H  0.42242237  0.71754033  0.50803817     0.17020
O2962       O  0.44415148  0.74674943  0.50737658    -0.60010
H2963       H  0.44131048  0.75252140  0.49509961     0.44020
H2964       H  0.46913912  0.66820824  0.50065585     0.43980
C2965       C  0.50023715  0.77945978  0.52849311    -0.05090
C2966       C  0.49610499  0.77516200  0.54716130    -0.32520
C2967       C  0.49585801  0.78918181  0.56076931     0.36730
C2968       C  0.49985765  0.80771340  0.55579662    -0.05450
C2969       C  0.50412363  0.81211123  0.53727954    -0.32420
C2970       C  0.50411543  0.79817185  0.52357294     0.36640
H2971       H  0.49312845  0.76090795  0.55121794     0.17010
O2972       O  0.49155170  0.78471291  0.57888898    -0.59910
H2973       H  0.50710564  0.82642470  0.53341628     0.17020
O2974       O  0.50745351  0.80307309  0.50535542    -0.60010
H2975       H  0.49489775  0.80487854  0.49967533     0.44020
H2976       H  0.50378487  0.78264159  0.58515312     0.43980
C2977       C  0.42676593  0.86073229  0.60807576    -0.05090
C2978       C  0.43011169  0.84174936  0.60482857    -0.32520
C2979       C  0.44806533  0.83532532  0.60028341     0.36730
C2980       C  0.46302581  0.84809705  0.59853506    -0.05450
C2981       C  0.45968061  0.86712860  0.60231979    -0.32420
C2982       C  0.44169600  0.87344374  0.60719215     0.36640
H2983       H  0.41881233  0.83178452  0.60620473     0.17010
O2984       O  0.45107967  0.81643164  0.59846261    -0.59910
H2985       H  0.47092037  0.87716558  0.60112106     0.17020
O2986       O  0.43883761  0.89202478  0.61105840    -0.60010
H2987       H  0.43490731  0.89765943  0.59901344     0.44020
H2988       H  0.44376556  0.81250062  0.58731945     0.43980
C2989       C  0.32121356  0.88826866  0.60649157    -0.05090
C2990       C  0.31827934  0.90717751  0.60282918    -0.32520
C2991       C  0.30050498  0.91385356  0.59805065     0.36730
C2992       C  0.28522988  0.90138693  0.59629548    -0.05450
C2993       C  0.28815515  0.88237565  0.60041970    -0.32420
C2994       C  0.30601489  0.87583012  0.60566156     0.36640
H2995       H  0.32975539  0.91696247  0.60421379     0.17010
O2996       O  0.29795565  0.93278892  0.59614579    -0.59910
H2997       H  0.27669086  0.87257058  0.59936482     0.17020
O2998       O  0.30846428  0.85733186  0.61002712    -0.60010
H2999       H  0.31254369  0.85126896  0.59822302     0.44020
H3000       H  0.30578805  0.93648951  0.58534937     0.43980
C3001       C  0.39213746  0.61222751  0.67826944    -0.05090
C3002       C  0.38019871  0.60073501  0.68873384    -0.32520
C3003       C  0.38514994  0.59497642  0.70676957     0.36730
C3004       C  0.40207767  0.60098023  0.71478067    -0.05450
C3005       C  0.41392416  0.61268061  0.70450868    -0.32420
C3006       C  0.40900938  0.61841441  0.68640788     0.36640
H3007       H  0.36720292  0.59574770  0.68271046     0.17010
O3008       O  0.37364700  0.58299508  0.71624010    -0.59910
H3009       H  0.42709411  0.61722662  0.71050393     0.17020
O3010       O  0.42077033  0.63005644  0.67684610    -0.60010
H3011       H  0.41615029  0.64286983  0.67957722     0.44020
H3012       H  0.37828807  0.57028415  0.71308653     0.43980
C3013       C  0.39431518  0.63932099  0.57219770    -0.05090
C3014       C  0.39413549  0.62678585  0.55707887    -0.32520
C3015       C  0.39886996  0.63277590  0.53899507     0.36730
C3016       C  0.40308510  0.65180468  0.53570401    -0.05450
C3017       C  0.40249421  0.66430979  0.55101569    -0.32420
C3018       C  0.39851585  0.65814921  0.56907189     0.36640
H3019       H  0.39058139  0.61226273  0.55936093     0.17010
O3020       O  0.39967365  0.61980959  0.52486216    -0.59910
H3021       H  0.40506667  0.67907617  0.54906323     0.17020
O3022       O  0.39851606  0.67074005  0.58359628    -0.60010
H3023       H  0.38539571  0.67521701  0.58457936     0.44020
H3024       H  0.41295099  0.61574089  0.52438785     0.43980
C3025       C  0.10620075  0.32378716  0.38842608    -0.05090
C3026       C  0.10820534  0.30833461  0.37649341    -0.32520
C3027       C  0.10304072  0.29040462  0.38240960     0.36730
C3028       C  0.09656565  0.28761761  0.40086944    -0.05450
C3029       C  0.09521421  0.30324530  0.41287114    -0.32420
C3030       C  0.09963685  0.32117721  0.40666922     0.36640
H3031       H  0.11344996  0.31024758  0.36242715     0.17010
O3032       O  0.10401810  0.27588681  0.36987900    -0.59910
H3033       H  0.09080919  0.30163765  0.42724826     0.17020
O3034       O  0.09788346  0.33606253  0.41868977    -0.60010
H3035       H  0.10943745  0.33586049  0.42639346     0.44020
H3036       H  0.09124777  0.27485675  0.36451309     0.43980
C3037       C  0.28496714  0.59769865  0.40005692    -0.05090
C3038       C  0.29717735  0.58460788  0.39186182    -0.32520
C3039       C  0.31507506  0.58984227  0.38595825     0.36730
C3040       C  0.32113757  0.60841070  0.38841542    -0.05450
C3041       C  0.30871333  0.62158796  0.39623417    -0.32420
C3042       C  0.29081982  0.61633520  0.40212324     0.36640
H3043       H  0.29284598  0.57019812  0.39019416     0.17010
O3044       O  0.32654473  0.57663419  0.37799989    -0.59910
H3045       H  0.31305224  0.63594307  0.39829063     0.17020
O3046       O  0.27943769  0.62935971  0.41051379    -0.60010
H3047       H  0.28205721  0.62825783  0.42409495     0.44020
H3048       H  0.32412131  0.57748519  0.36436511     0.43980
C3049       C  0.35909291  0.57308040  0.61013352    -0.05090
C3050       C  0.35595509  0.56978640  0.59112585    -0.32520
C3051       C  0.35131087  0.55190972  0.58469175     0.36730
C3052       C  0.34941253  0.53699206  0.59747859    -0.05450
C3053       C  0.35309597  0.54029364  0.61653766    -0.32420
C3054       C  0.35801720  0.55820533  0.62286846     0.36640
H3055       H  0.35743854  0.58107154  0.58116625     0.17010
O3056       O  0.34953371  0.54892715  0.56578632    -0.59910
H3057       H  0.35178779  0.52907594  0.62657926     0.17020
O3058       O  0.36178241  0.56103986  0.64147740    -0.60010
H3059       H  0.34975162  0.56521568  0.64701252     0.44020
H3060       H  0.33838437  0.55625075  0.56184561     0.43980
C3061       C  0.15429343  0.40331864  0.46281279    -0.05090
C3062       C  0.14599976  0.38561663  0.46057185    -0.32520
C3063       C  0.14061429  0.37909318  0.44283725     0.36730
C3064       C  0.14419078  0.38988196  0.42685324    -0.05450
C3065       C  0.15234080  0.40746041  0.42889932    -0.32420
C3066       C  0.15693048  0.41445975  0.44662891     0.36640
H3067       H  0.14373493  0.37669181  0.47253657     0.17010
O3068       O  0.13181633  0.36216754  0.44128310    -0.59910
H3069       H  0.15432428  0.41623338  0.41673900     0.17020
O3070       O  0.16259662  0.43273160  0.44804616    -0.60010
H3071       H  0.17465138  0.43343211  0.44122040     0.44020
H3072       H  0.14196210  0.35297460  0.43888325     0.43980
C3073       C  0.22300843  0.47160531  0.50035391    -0.05090
C3074       C  0.20402218  0.47662236  0.50076637    -0.32520
C3075       C  0.19023518  0.46287545  0.50133711     0.36730
C3076       C  0.19539592  0.44389717  0.50124633    -0.05450
C3077       C  0.21430849  0.43880055  0.50068342    -0.32420
C3078       C  0.22813510  0.45253931  0.50028483     0.36640
H3079       H  0.19990912  0.49121943  0.50083016     0.17010
O3080       O  0.17172502  0.46805812  0.50139549    -0.59910
H3081       H  0.21830661  0.42417394  0.50040382     0.17020
O3082       O  0.24659135  0.44721912  0.49956347    -0.60010
H3083       H  0.24983595  0.44723280  0.48608892     0.44020
H3084       H  0.16826857  0.46896927  0.51479056     0.43980
C3085       C  0.27971410  0.50011649  0.52860456    -0.05090
C3086       C  0.29872635  0.50112361  0.52386174    -0.32520
C3087       C  0.31245057  0.50110885  0.53779180     0.36730
C3088       C  0.30720097  0.50017217  0.55667643    -0.05450
C3089       C  0.28828318  0.49931543  0.56152456    -0.32420
C3090       C  0.27451759  0.49937562  0.54762424     0.36640
H3091       H  0.30293690  0.50170862  0.50933152     0.17010
O3092       O  0.33095449  0.50229600  0.53288316    -0.59910
H3093       H  0.28421567  0.49877168  0.57610053     0.17020
O3094       O  0.25603772  0.49898968  0.55277128    -0.60010
H3095       H  0.25197128  0.51225967  0.55299303     0.44020
H3096       H  0.33538940  0.48917102  0.53196930     0.43980
C3097       C  0.25086649  0.52874233  0.47136190    -0.05090
C3098       C  0.24496034  0.52420049  0.45309065    -0.32520
C3099       C  0.24444424  0.53775201  0.43905493     0.36730
C3100       C  0.25032282  0.55603261  0.44300384    -0.05450
C3101       C  0.25630562  0.56069121  0.46105472    -0.32420
C3102       C  0.25626220  0.54736510  0.47528541     0.36640
H3103       H  0.24088027  0.51005912  0.44956589     0.17010
O3104       O  0.23817002  0.53302421  0.42152839    -0.59910
H3105       H  0.26059524  0.57487098  0.46421791     0.17020
O3106       O  0.26104079  0.55291005  0.49303623    -0.60010
H3107       H  0.24899963  0.55578536  0.49930730     0.44020
H3108       H  0.24954965  0.52939777  0.41445882     0.43980
C3109       C  0.07166843  0.35841515  0.61023058    -0.05090
C3110       C  0.05817818  0.37186240  0.60505179    -0.32520
C3111       C  0.04017621  0.36657026  0.59931623     0.36730
C3112       C  0.03523371  0.34754571  0.59889454    -0.05450
C3113       C  0.04855978  0.33414260  0.60451648    -0.32420
C3114       C  0.06658091  0.33941011  0.61015408     0.36640
H3115       H  0.06171872  0.38657067  0.60497012     0.17010
O3116       O  0.02779488  0.38006788  0.59350224    -0.59910
H3117       H  0.04501701  0.31942937  0.60436124     0.17020
O3118       O  0.07915566  0.32579832  0.61523063    -0.60010
H3119       H  0.07739946  0.32418353  0.62888128     0.44020
H3120       H  0.02954889  0.38091365  0.57977831     0.43980
C3121       C  0.13619206  0.39434429  0.56963675    -0.05090
C3122       C  0.13659475  0.41348119  0.56538005    -0.32520
C3123       C  0.14195979  0.41965108  0.54758383     0.36730
C3124       C  0.14692032  0.40659463  0.53358011    -0.05450
C3125       C  0.14551286  0.38746477  0.53749990    -0.32420
C3126       C  0.14032259  0.38128851  0.55531773     0.36640
H3127       H  0.13311664  0.42376832  0.57598148     0.17010
O3128       O  0.14209364  0.43847051  0.54388102    -0.59910
H3129       H  0.14934902  0.37722353  0.52697142     0.17020
O3130       O  0.13968925  0.36242587  0.55860580    -0.60010
H3131       H  0.15267400  0.35884293  0.56204872     0.44020
H3132       H  0.15230587  0.44373544  0.55168575     0.43980
C3133       C  0.38755446  0.32253788  0.60676150    -0.05090
C3134       C  0.39589894  0.31017265  0.61958952    -0.32520
C3135       C  0.40109215  0.29206759  0.61423938     0.36730
C3136       C  0.39773436  0.28584621  0.59585535    -0.05450
C3137       C  0.38907354  0.29802216  0.58307372    -0.32420
C3138       C  0.38388546  0.31620095  0.58842442     0.36640
H3139       H  0.39891946  0.31470559  0.63374773     0.17010
O3140       O  0.41017048  0.28082608  0.62688401    -0.59910
H3141       H  0.38654004  0.29347109  0.56882565     0.17020
O3142       O  0.37545108  0.32766242  0.57555848    -0.60010
H3143       H  0.36182543  0.32564518  0.57718354     0.44020
H3144       H  0.42369824  0.28307892  0.62481555     0.43980
C3145       C  0.42875107  0.38971601  0.64214096    -0.05090
C3146       C  0.43938738  0.37854300  0.65433662    -0.32520
C3147       C  0.45779498  0.38358326  0.65912972     0.36730
C3148       C  0.46551587  0.40020346  0.65208938    -0.05450
C3149       C  0.45485076  0.41131604  0.63993476    -0.32420
C3150       C  0.43672691  0.40606265  0.63474628     0.36640
H3151       H  0.43347978  0.36584735  0.65999758     0.17010
O3152       O  0.46781281  0.37265480  0.67131668    -0.59910
H3153       H  0.46048944  0.42434678  0.63475871     0.17020
O3154       O  0.42648179  0.41758283  0.62328783    -0.60010
H3155       H  0.43027041  0.41414533  0.61039258     0.44020
H3156       H  0.47508789  0.36395825  0.66328357     0.43980
C3157       C  0.36354284  0.42946482  0.60722779    -0.05090
C3158       C  0.36043339  0.44352343  0.62070176    -0.32520
C3159       C  0.35516310  0.46166520  0.61543225     0.36730
C3160       C  0.35284069  0.46604726  0.59638563    -0.05450
C3161       C  0.35667362  0.45218659  0.58290387    -0.32420
C3162       C  0.36194810  0.43408360  0.58815108     0.36640
H3163       H  0.36160249  0.44035732  0.63546320     0.17010
O3164       O  0.35097618  0.47456624  0.62904245    -0.59910
H3165       H  0.35513145  0.45529366  0.56815809     0.17020
O3166       O  0.36474257  0.42087720  0.57448611    -0.60010
H3167       H  0.37812971  0.42197460  0.57104477     0.44020
H3168       H  0.36325033  0.47899332  0.63377462     0.43980
C3169       C  0.34746447  0.15067502  0.71473708    -0.05090
C3170       C  0.36177643  0.16030573  0.70560371    -0.32520
C3171       C  0.36701207  0.15537748  0.68740179     0.36730
C3172       C  0.35765589  0.14080442  0.67795633    -0.05450
C3173       C  0.34326629  0.13119158  0.68710198    -0.32420
C3174       C  0.33826593  0.13594932  0.70547266     0.36640
H3175       H  0.36859482  0.17198086  0.71246081     0.17010
O3176       O  0.38055438  0.16559246  0.67855784    -0.59910
H3177       H  0.33604802  0.11987149  0.68007106     0.17020
O3178       O  0.32405648  0.12649354  0.71408962    -0.60010
H3179       H  0.33034868  0.11656668  0.72147197     0.44020
H3180       H  0.39262389  0.16023900  0.68290523     0.43980
C3181       C  0.35060489  0.15388316  0.78505144    -0.05090
C3182       C  0.34956205  0.13503028  0.79011264    -0.32520
C3183       C  0.35441236  0.12929347  0.80818983     0.36730
C3184       C  0.36075546  0.14249064  0.82153615    -0.05450
C3185       C  0.36230999  0.16129353  0.81623397    -0.32420
C3186       C  0.35734429  0.16700913  0.79817123     0.36640
H3187       H  0.34422198  0.12481683  0.78024653     0.17010
O3188       O  0.35250468  0.11078377  0.81270949    -0.59910
H3189       H  0.36727238  0.17164414  0.82614557     0.17020
O3190       O  0.35885138  0.18553251  0.79354799    -0.60010
H3191       H  0.37109349  0.18661223  0.78714508     0.44020
H3192       H  0.33947952  0.10956289  0.81730693     0.43980
C3193       C  0.21420922  0.34952177  0.65158776    -0.05090
C3194       C  0.19819414  0.34737252  0.66293608    -0.32520
C3195       C  0.18022569  0.35146045  0.65624296     0.36730
C3196       C  0.17783907  0.35889862  0.63828355    -0.05450
C3197       C  0.19362647  0.36207452  0.62716029    -0.32420
C3198       C  0.21161191  0.35698738  0.63340597     0.36640
H3199       H  0.19942167  0.34250032  0.67718874     0.17010
O3200       O  0.16505658  0.34843147  0.66755036    -0.59910
H3201       H  0.19194022  0.36802913  0.61334156     0.17020
O3202       O  0.22634878  0.35895398  0.62134704    -0.60010
H3203       H  0.22763321  0.34665237  0.61503828     0.44020
H3204       H  0.16287281  0.36046570  0.67413173     0.43980
C3205       C  0.28544969  0.35207329  0.65371050    -0.05090
C3206       C  0.28897206  0.35672680  0.63502329    -0.32520
C3207       C  0.30671243  0.36286471  0.62945122     0.36730
C3208       C  0.32143319  0.36438101  0.64264939    -0.05450
C3209       C  0.31759069  0.36073893  0.66150470    -0.32420
C3210       C  0.29983944  0.35459218  0.66707511     0.36640
H3211       H  0.27811413  0.35497797  0.62456056     0.17010
O3212       O  0.30957961  0.36682730  0.61093315    -0.59910
H3213       H  0.32850084  0.36218723  0.67195639     0.17020
O3214       O  0.29654731  0.35138018  0.68568950    -0.60010
H3215       H  0.30440813  0.34041210  0.68900405     0.44020
H3216       H  0.30690921  0.38038583  0.60972368     0.43980
C3217       C  0.24944190  0.27666895  0.71951110    -0.05090
C3218       C  0.26513588  0.28812230  0.71781488    -0.32520
C3219       C  0.26590612  0.30192840  0.70406534     0.36730
C3220       C  0.25115626  0.30384726  0.69081520    -0.05450
C3221       C  0.23581454  0.29152842  0.69222628    -0.32420
C3222       C  0.23464966  0.27851082  0.70670609     0.36640
H3223       H  0.27659831  0.28681845  0.72769581     0.17010
O3224       O  0.28089395  0.31380633  0.70436612    -0.59910
H3225       H  0.22449994  0.29183902  0.68216691     0.17020
O3226       O  0.21896537  0.26762448  0.70820615    -0.60010
H3227       H  0.22197347  0.25594353  0.70132576     0.44020
H3228       H  0.27685594  0.32458022  0.71214819     0.43980
C3229       C  0.27681213  0.22044307  0.74951806    -0.05090
C3230       C  0.29379103  0.22425274  0.75853305    -0.32520
C3231       C  0.30812461  0.21091657  0.75871560     0.36730
C3232       C  0.30548362  0.19352296  0.74979078    -0.05450
C3233       C  0.28845023  0.18980829  0.74069936    -0.32420
C3234       C  0.27409245  0.20313010  0.74063619     0.36640
H3235       H  0.29595923  0.23765791  0.76528564     0.17010
O3236       O  0.32475214  0.21511606  0.76736955    -0.59910
H3237       H  0.28624387  0.17649174  0.73378874     0.17020
O3238       O  0.25761438  0.19930822  0.73153819    -0.60010
H3239       H  0.24930181  0.19399087  0.74122797     0.44020
H3240       H  0.33295309  0.21988986  0.75730593     0.43980
C3241       C  0.19232616  0.25044108  0.80461905    -0.05090
C3242       C  0.19117409  0.23739139  0.78988459    -0.32520
C3243       C  0.20479216  0.23681561  0.77589421     0.36730
C3244       C  0.21962041  0.24961530  0.77625446    -0.05450
C3245       C  0.22082689  0.26274335  0.79074431    -0.32420
C3246       C  0.20752805  0.26304493  0.80504117     0.36640
H3247       H  0.17964654  0.22763029  0.78914069     0.17010
O3248       O  0.20359109  0.22361609  0.76199093    -0.59910
H3249       H  0.23240757  0.27247306  0.79120918     0.17020
O3250       O  0.20987366  0.27536627  0.81959163    -0.60010
H3251       H  0.21631709  0.26811414  0.82951562     0.44020
H3252       H  0.19687969  0.22988821  0.75158680     0.43980
C3253       C  0.39743459  0.96517875  0.65325509    -0.05090
C3254       C  0.39453077  0.95140178  0.66696188    -0.32520
C3255       C  0.38901553  0.93325701  0.66207989     0.36730
C3256       C  0.38582446  0.92859093  0.64319262    -0.05450
C3257       C  0.38802487  0.94253997  0.62954771    -0.32420
C3258       C  0.39377868  0.96064377  0.63440510     0.36640
H3259       H  0.39698456  0.95458362  0.68158516     0.17010
O3260       O  0.38713010  0.92016329  0.67589998    -0.59910
H3261       H  0.38576183  0.93930964  0.61490493     0.17020
O3262       O  0.39707918  0.97333437  0.62047395    -0.60010
H3263       H  0.38451826  0.97736940  0.61608251     0.44020
H3264       H  0.39981043  0.91469329  0.67753866     0.43980
C3265       C  0.40182156  0.03590144  0.64935131    -0.05090
C3266       C  0.41514462  0.04800006  0.64158995    -0.32520
C3267       C  0.41020656  0.06612820  0.63603382     0.36730
C3268       C  0.39168230  0.07256053  0.63836450    -0.05450
C3269       C  0.37827367  0.06026847  0.64575457    -0.32420
C3270       C  0.38323524  0.04214823  0.65131491     0.36640
H3271       H  0.42953365  0.04340923  0.64002632     0.17010
O3272       O  0.42368354  0.07747123  0.62860519    -0.59910
H3273       H  0.36393506  0.06485578  0.64769415     0.17020
O3274       O  0.36997091  0.03093035  0.65930842    -0.60010
H3275       H  0.37102618  0.03324964  0.67295298     0.44020
H3276       H  0.42309526  0.07525880  0.61491708     0.43980
C3277       C  0.59723131  0.90351151  0.71317547    -0.05090
C3278       C  0.58483468  0.90421172  0.69780739    -0.32520
C3279       C  0.59080927  0.89962804  0.67978052     0.36730
C3280       C  0.60929041  0.89369461  0.67681572    -0.05450
C3281       C  0.62159789  0.89222339  0.69204619    -0.32420
C3282       C  0.61583259  0.89743063  0.71008313     0.36640
H3283       H  0.57036131  0.90834027  0.69972211     0.17010
O3284       O  0.57838458  0.90074935  0.66515301    -0.59910
H3285       H  0.63584394  0.88744606  0.68985896     0.17020
O3286       O  0.62864241  0.89696590  0.72438902    -0.60010
H3287       H  0.63372429  0.90982364  0.72515783     0.44020
H3288       H  0.57306821  0.88802265  0.66387115     0.43980
C3289       C  0.52898111  0.97425568  0.74899775    -0.05090
C3290       C  0.52434282  0.95610443  0.75454432    -0.32520
C3291       C  0.53807446  0.94217125  0.75530702     0.36730
C3292       C  0.55656837  0.94628020  0.75005501    -0.05450
C3293       C  0.56117952  0.96441006  0.74436619    -0.32420
C3294       C  0.54752724  0.97846686  0.74406549     0.36640
H3295       H  0.51006605  0.95278531  0.75834737     0.17010
O3296       O  0.53317750  0.92438772  0.76041241    -0.59910
H3297       H  0.57537235  0.96763225  0.74019431     0.17020
O3298       O  0.55222837  0.99608943  0.73828788    -0.60010
H3299       H  0.55692944  0.00252311  0.74966190     0.44020
H3300       H  0.53361499  0.92437782  0.77427484     0.43980
C3301       C  0.47091165  0.00051428  0.72012207    -0.05090
C3302       C  0.47571171  0.99621047  0.70152687    -0.32520
C3303       C  0.46207035  0.99598717  0.68748518     0.36730
C3304       C  0.44340781  0.00022746  0.69192136    -0.05450
C3305       C  0.43847471  0.00437084  0.71039854    -0.32420
C3306       C  0.45200618  0.00431111  0.72452611     0.36640
H3307       H  0.49012823  0.99332949  0.69779731     0.17010
O3308       O  0.46707561  0.99164201  0.66947999    -0.59910
H3309       H  0.42402722  0.00744372  0.71388571     0.17020
O3310       O  0.44652674  0.00771977  0.74259259    -0.60010
H3311       H  0.44481600  0.99520495  0.74823898     0.44020
H3312       H  0.46980471  0.00380687  0.66348989     0.43980
C3313       C  0.46373848  0.09733433  0.84993633    -0.05090
C3314       C  0.45978346  0.11626973  0.85324847    -0.32520
C3315       C  0.44204938  0.12198405  0.85935110     0.36730
C3316       C  0.42776020  0.10867085  0.86214396    -0.05450
C3317       C  0.43195861  0.08966859  0.85957213    -0.32420
C3318       C  0.44972488  0.08394876  0.85350287     0.36640
H3319       H  0.47031929  0.12676925  0.85057528     0.17010
O3320       O  0.43876941  0.14069961  0.86205546    -0.59910
H3321       H  0.42135640  0.07916884  0.86196826     0.17020
O3322       O  0.45344158  0.06519758  0.85156242    -0.60010
H3323       H  0.44589811  0.06100264  0.84067274     0.44020
H3324       H  0.44198650  0.14308179  0.87535019     0.43980
C3325       C  0.49970906  0.05918525  0.80357371    -0.05090
C3326       C  0.48660754  0.04455421  0.80377580    -0.32520
C3327       C  0.48656420  0.03093802  0.78976746     0.36730
C3328       C  0.49997491  0.03153601  0.77548416    -0.05450
C3329       C  0.51309654  0.04597316  0.77512353    -0.32420
C3330       C  0.51283763  0.05996219  0.78880972     0.36640
H3331       H  0.47651656  0.04344552  0.81498989     0.17010
O3332       O  0.47346102  0.01698340  0.79021777    -0.59910
H3333       H  0.52335620  0.04654894  0.76400596     0.17020
O3334       O  0.52527112  0.07443590  0.78737316    -0.60010
H3335       H  0.51819722  0.08466192  0.78120205     0.44020
H3336       H  0.47951621  0.00659429  0.79714194     0.43980
C3337       C  0.17697846  0.39283340  0.10952221    -0.05090
C3338       C  0.19062380  0.39801064  0.12265856    -0.32520
C3339       C  0.20881707  0.40250532  0.11686110     0.36730
C3340       C  0.21345508  0.40186691  0.09771109    -0.05450
C3341       C  0.19974087  0.39643555  0.08467976    -0.32420
C3342       C  0.18169247  0.39176791  0.09049473     0.36640
H3343       H  0.18717434  0.39851089  0.13739851     0.17010
O3344       O  0.22180709  0.40791122  0.12993524    -0.59910
H3345       H  0.20302445  0.39596619  0.06989885     0.17020
O3346       O  0.16857064  0.38664304  0.07742306    -0.60010
H3347       H  0.16954432  0.37283712  0.07652777     0.44020
H3348       H  0.22083959  0.42173357  0.13050076     0.43980
C3349       C  0.07227575  0.63853163  0.39371544    -0.05090
C3350       C  0.05698170  0.62684350  0.38998299    -0.32520
C3351       C  0.03879764  0.63208780  0.39534405     0.36730
C3352       C  0.03560440  0.64969108  0.40383851    -0.05450
C3353       C  0.05111949  0.66142910  0.40710820    -0.32420
C3354       C  0.06926075  0.65585593  0.40241169     0.36640
H3355       H  0.05920303  0.61347589  0.38315069     0.17010
O3356       O  0.02443153  0.61976371  0.39244081    -0.59910
H3357       H  0.04922558  0.67523030  0.41309869     0.17020
O3358       O  0.08391296  0.66774156  0.40583088    -0.60010
H3359       H  0.08531879  0.67513009  0.39421146     0.44020
H3360       H  0.02289854  0.61316468  0.40450785     0.43980
C3361       C  0.21447237  0.60118577  0.40386380    -0.05090
C3362       C  0.21050237  0.60326059  0.38476566    -0.32520
C3363       C  0.19275002  0.60905741  0.37871645     0.36730
C3364       C  0.17853317  0.61306021  0.39187214    -0.05450
C3365       C  0.18275550  0.61171041  0.41099743    -0.32420
C3366       C  0.20050651  0.60582218  0.41703963     0.36640
H3367       H  0.22101665  0.59975702  0.37442357     0.17010
O3368       O  0.18946773  0.61056736  0.35987375    -0.59910
H3369       H  0.17221065  0.61503385  0.42136332     0.17020
O3370       O  0.20427629  0.60515994  0.43586173    -0.60010
H3371       H  0.19662874  0.59474337  0.44078524     0.44020
H3372       H  0.18572476  0.59786685  0.35575151     0.43980
C3373       C  0.13674754  0.67968873  0.35637481    -0.05090
C3374       C  0.14125113  0.69312803  0.37007814    -0.32520
C3375       C  0.14711647  0.71108515  0.36510996     0.36730
C3376       C  0.14831083  0.71608447  0.34612234    -0.05450
C3377       C  0.14321624  0.70284532  0.33243155    -0.32420
C3378       C  0.13751379  0.68482220  0.33739620     0.36640
H3379       H  0.14078350  0.68956407  0.38478065     0.17010
O3380       O  0.15239648  0.72332476  0.37893556    -0.59910
H3381       H  0.14393618  0.70641180  0.31773725     0.17020
O3382       O  0.13327555  0.67223285  0.32353367    -0.60010
H3383       H  0.11971053  0.67397521  0.32108566     0.44020
H3384       H  0.16608596  0.72146330  0.38041163     0.43980
C3385       C  0.82070301  0.36391997  0.14292066    -0.05090
C3386       C  0.81585233  0.36488906  0.16190549    -0.32520
C3387       C  0.79790547  0.35979387  0.16793634     0.36730
C3388       C  0.78440707  0.35357453  0.15487552    -0.05450
C3389       C  0.78903022  0.35337127  0.13582578    -0.32420
C3390       C  0.80692366  0.35842261  0.12980588     0.36640
H3391       H  0.82604007  0.36945517  0.17218032     0.17010
O3392       O  0.79349731  0.36142302  0.18654879    -0.59910
H3393       H  0.77894423  0.34856365  0.12555773     0.17020
O3394       O  0.81078974  0.35766737  0.11103885    -0.60010
H3395       H  0.81482889  0.34460057  0.10862527     0.44020
H3396       H  0.80141696  0.35206629  0.19308895     0.43980
C3397       C  0.10106083  0.53626999  0.34612358    -0.05090
C3398       C  0.10398256  0.55008856  0.33247286    -0.32520
C3399       C  0.10942831  0.56821890  0.33745043     0.36730
C3400       C  0.11251065  0.57280499  0.35637509    -0.05450
C3401       C  0.11018687  0.55884382  0.36997146    -0.32420
C3402       C  0.10449905  0.54076416  0.36502167     0.36640
H3403       H  0.10168106  0.54692786  0.31782062     0.17010
O3404       O  0.11144947  0.58134676  0.32368193    -0.59910
H3405       H  0.11233152  0.56203256  0.38464102     0.17020
O3406       O  0.10108329  0.52803604  0.37889281    -0.60010
H3407       H  0.11360222  0.52413409  0.38351855     0.44020
H3408       H  0.09878595  0.58682172  0.32193424     0.43980
C3409       C  0.09820783  0.46578999  0.34982275    -0.05090
C3410       C  0.11386254  0.45716534  0.34179150    -0.32520
C3411       C  0.11897994  0.43898324  0.34688774     0.36730
C3412       C  0.10823484  0.42909151  0.36008039    -0.05450
C3413       C  0.09255850  0.43778193  0.36814359    -0.32420
C3414       C  0.08760305  0.45608826  0.36318137     0.36640
H3415       H  0.12179806  0.46435069  0.33112864     0.17010
O3416       O  0.13384522  0.43058688  0.33806058    -0.59910
H3417       H  0.08424303  0.43042847  0.37838568     0.17020
O3418       O  0.07211480  0.46424487  0.37109488    -0.60010
H3419       H  0.07699447  0.47176990  0.38169946     0.44020
H3420       H  0.14511335  0.43511729  0.34478477     0.43980
C3421       C  0.03472748  0.40319016  0.15032086    -0.05090
C3422       C  0.04791117  0.41687189  0.14548072    -0.32520
C3423       C  0.06587049  0.41188767  0.13939060     0.36730
C3424       C  0.07104450  0.39289117  0.13814665    -0.05450
C3425       C  0.05769231  0.37919748  0.14261288    -0.32420
C3426       C  0.03972830  0.38420410  0.14871107     0.36640
H3427       H  0.04429612  0.43156124  0.14657501     0.17010
O3428       O  0.07835063  0.42574842  0.13517814    -0.59910
H3429       H  0.06129046  0.36449294  0.14178569     0.17020
O3430       O  0.02741912  0.37042978  0.15366519    -0.60010
H3431       H  0.02923566  0.36872710  0.16730914     0.44020
H3432       H  0.07628712  0.42844467  0.12173375     0.43980
C3433       C  0.96427583  0.40089060  0.15164502    -0.05090
C3434       C  0.95600356  0.40833476  0.13554044    -0.32520
C3435       C  0.93788644  0.40308305  0.13024340     0.36730
C3436       C  0.92770321  0.39033987  0.14127153    -0.05450
C3437       C  0.93609779  0.38282777  0.15735447    -0.32420
C3438       C  0.95432022  0.38793107  0.16248475     0.36640
H3439       H  0.96341193  0.41864771  0.12736299     0.17010
O3440       O  0.92985330  0.41133746  0.11488716    -0.59910
H3441       H  0.92854806  0.37294391  0.16591593     0.17020
O3442       O  0.96212840  0.38058273  0.17839774    -0.60010
H3443       H  0.96975532  0.36979857  0.17406540     0.44020
H3444       H  0.93452881  0.40407826  0.10401061     0.43980
C3445       C  0.99931328  0.47197041  0.22226836    -0.05090
C3446       C  0.98551342  0.45816677  0.22256602    -0.32520
C3447       C  0.98534027  0.44396282  0.20907617     0.36730
C3448       C  0.99873802  0.44387081  0.19451299    -0.05450
C3449       C  0.01240142  0.45800298  0.19426635    -0.32420
C3450       C  0.01288797  0.47178644  0.20812708     0.36640
H3451       H  0.97511165  0.45816926  0.23357005     0.17010
O3452       O  0.97229721  0.43004984  0.21061972    -0.59910
H3453       H  0.02269950  0.45853193  0.18320023     0.17020
O3454       O  0.02668130  0.48506127  0.20774245    -0.60010
H3455       H  0.02123259  0.49568737  0.20068414     0.44020
H3456       H  0.97880862  0.41973510  0.21723807     0.43980
C3457       C  0.02856674  0.50046819  0.27896795    -0.05090
C3458       C  0.04723170  0.49617729  0.27445321    -0.32520
C3459       C  0.06105647  0.49599467  0.28829501     0.36730
C3460       C  0.05632108  0.50023382  0.30687873    -0.05450
C3461       C  0.03777163  0.50441176  0.31152773    -0.32420
C3462       C  0.02385310  0.50431912  0.29777698     0.36640
H3463       H  0.05116486  0.49322130  0.26012053     0.17010
O3464       O  0.07916857  0.49168991  0.28356521    -0.59910
H3465       H  0.03406937  0.50753181  0.32589395     0.17020
O3466       O  0.00567117  0.50770787  0.30294361    -0.60010
H3467       H  0.00005981  0.49518667  0.30471943     0.44020
H3468       H  0.08520151  0.50387678  0.28103210     0.43980
C3469       C  0.89736118  0.59646376  0.28404002    -0.05090
C3470       C  0.89262634  0.58292487  0.29742850    -0.32520
C3471       C  0.88707543  0.58811410  0.31550458     0.36730
C3472       C  0.88620791  0.60715861  0.32054561    -0.05450
C3473       C  0.89017251  0.62069456  0.30689122    -0.32420
C3474       C  0.89581077  0.61550010  0.28886012     0.36640
H3475       H  0.89370310  0.56819748  0.29398427     0.17010
O3476       O  0.88316587  0.57441089  0.32825136    -0.59910
H3477       H  0.88954305  0.63543708  0.31035568     0.17020
O3478       O  0.90068303  0.62915508  0.27638717    -0.60010
H3479       H  0.91433227  0.63095229  0.27816943     0.44020
H3480       H  0.86956454  0.57203419  0.32687286     0.43980
C3481       C  0.94518737  0.55825747  0.25088256    -0.05090
C3482       C  0.96348178  0.56250736  0.24531148    -0.32520
C3483       C  0.97727433  0.54858302  0.24499056     0.36730
C3484       C  0.97262788  0.53013255  0.24977371    -0.05450
C3485       C  0.95432008  0.52584818  0.25515636    -0.32420
C3486       C  0.94064934  0.53983316  0.25593169     0.36640
H3487       H  0.96704055  0.57663115  0.24126008     0.17010
O3488       O  0.99508138  0.55294807  0.23942349    -0.59910
H3489       H  0.95068691  0.51165406  0.25889626     0.17020
O3490       O  0.92269728  0.53525305  0.26084102    -0.60010
H3491       H  0.92266144  0.53519650  0.27470900     0.44020
H3492       H  0.00144094  0.55761933  0.25085251     0.43980
C3493       C  0.10116317  0.34678867  0.03430530    -0.05090
C3494       C  0.10466121  0.33320207  0.04809013    -0.32520
C3495       C  0.11003326  0.33830542  0.06625369     0.36730
C3496       C  0.11205500  0.35732522  0.07099781    -0.05450
C3497       C  0.10934765  0.37085828  0.05699096    -0.32420
C3498       C  0.10386291  0.36575480  0.03885868     0.36640
H3499       H  0.10275577  0.31851735  0.04488130     0.17010
O3500       O  0.11253132  0.32458951  0.07938337    -0.59910
H3501       H  0.11094831  0.38557322  0.06021182     0.17020
O3502       O  0.10034023  0.37950572  0.02598626    -0.60010
H3503       H  0.08678009  0.38229536  0.02713788     0.44020
H3504       H  0.12585776  0.32081454  0.07828882     0.43980
C3505       C  0.02650053  0.28081227  0.99883982    -0.05090
C3506       C  0.04325409  0.27777604  0.00854082    -0.32520
C3507       C  0.05692960  0.29162445  0.00919065     0.36730
C3508       C  0.05381054  0.30885811  0.00014535    -0.05450
C3509       C  0.03693484  0.31182714  0.99043599    -0.32420
C3510       C  0.02326618  0.29792062  0.98982165     0.36640
H3511       H  0.04575115  0.26457329  0.01552513     0.17010
O3512       O  0.07345003  0.28801489  0.01834218    -0.59910
H3513       H  0.03435659  0.32495526  0.98335329     0.17020
O3514       O  0.00698432  0.30097715  0.98007523    -0.60010
H3515       H  0.99813445  0.30632112  0.98934130     0.44020
H3516       H  0.08210737  0.28333178  0.00855536     0.43980
C3517       C  0.00081750  0.19364791  0.94420572    -0.05090
C3518       C  0.00346094  0.21225519  0.93896123    -0.32520
C3519       C  0.00337795  0.22645540  0.95239049     0.36730
C3520       C  0.00102367  0.22203045  0.97147138    -0.05450
C3521       C  0.99852041  0.20325670  0.97664100    -0.32420
C3522       C  0.99835670  0.18910744  0.96311219     0.36640
H3523       H  0.00523796  0.21579123  0.92434893     0.17010
O3524       O  0.00510792  0.24463415  0.94663361    -0.59910
H3525       H  0.99674778  0.19954102  0.99119963     0.17020
O3526       O  0.99558726  0.17093068  0.96843380    -0.60010
H3527       H  0.00831938  0.16563751  0.97020468     0.44020
H3528       H  0.99209644  0.24934432  0.94531283     0.43980
C3529       C  0.89915425  0.28614401  0.09631286    -0.05090
C3530       C  0.89543970  0.29997007  0.08281181    -0.32520
C3531       C  0.89000562  0.31807749  0.08801131     0.36730
C3532       C  0.88773150  0.32265712  0.10704163    -0.05450
C3533       C  0.89084662  0.30869301  0.12052425    -0.32420
C3534       C  0.89650963  0.29061545  0.11533437     0.36640
H3535       H  0.89710856  0.29683122  0.06807601     0.17010
O3536       O  0.88719094  0.33119172  0.07433579    -0.59910
H3537       H  0.88929250  0.31186735  0.13526404     0.17020
O3538       O  0.90064112  0.27786671  0.12903953    -0.60010
H3539       H  0.88836668  0.27393493  0.13411082     0.44020
H3540       H  0.89968066  0.33676314  0.07213050     0.43980
C3541       C  0.94289507  0.25076068  0.05534721    -0.05090
C3542       C  0.96091676  0.25693701  0.05975866    -0.32520
C3543       C  0.97494647  0.25688173  0.04621673     0.36730
C3544       C  0.97081180  0.25123986  0.02768568    -0.05450
C3545       C  0.95261844  0.24507590  0.02339284    -0.32420
C3546       C  0.93877543  0.24462998  0.03713536     0.36640
H3547       H  0.96419716  0.26143865  0.07387548     0.17010
O3548       O  0.99271233  0.26196526  0.05141207    -0.59910
H3549       H  0.94901659  0.24077761  0.00930470     0.17020
O3550       O  0.92124469  0.23824636  0.03265089    -0.60010
H3551       H  0.91398523  0.24954916  0.02913061     0.44020
H3552       H  0.99931792  0.25005951  0.05413683     0.43980
C3553       C  0.65209031  0.85155950  0.28445535    -0.05090
C3554       C  0.63328342  0.85006230  0.28967327    -0.32520
C3555       C  0.62752445  0.85507847  0.30770295     0.36730
C3556       C  0.64065151  0.86201587  0.32083014    -0.05450
C3557       C  0.65939280  0.86396336  0.31538690    -0.32420
C3558       C  0.66512748  0.85887265  0.29737152     0.36640
H3559       H  0.62314016  0.84430462  0.27996644     0.17010
O3560       O  0.60907096  0.85278389  0.31238820    -0.59910
H3561       H  0.66967512  0.86938414  0.32513554     0.17020
O3562       O  0.68358665  0.86088771  0.29257720    -0.60010
H3563       H  0.68424893  0.87307354  0.28605075     0.44020
H3564       H  0.60824262  0.83989523  0.31738063     0.43980
C3565       C  0.77697041  0.75068200  0.22154022    -0.05090
C3566       C  0.77352699  0.74179368  0.20441749    -0.32520
C3567       C  0.78701392  0.74203950  0.19031333     0.36730
C3568       C  0.80413492  0.75131249  0.19333871    -0.05450
C3569       C  0.80744026  0.76031177  0.21049354    -0.32420
C3570       C  0.79400617  0.75991463  0.22462007     0.36640
H3571       H  0.76033700  0.73474890  0.20199325     0.17010
O3572       O  0.78327439  0.73337435  0.17358190    -0.59910
H3573       H  0.82056751  0.76744334  0.21300348     0.17020
O3574       O  0.79746090  0.76885530  0.24126549    -0.60010
H3575       H  0.80312658  0.75920012  0.24946099     0.44020
H3576       H  0.77828587  0.74336009  0.16535098     0.43980
C3577       C  0.72022747  0.77966519  0.24964417    -0.05090
C3578       C  0.72519430  0.79809224  0.24501928    -0.32520
C3579       C  0.71173602  0.81229441  0.24463983     0.36730
C3580       C  0.69310554  0.80822315  0.24913930    -0.05450
C3581       C  0.68803050  0.78997220  0.25382826    -0.32420
C3582       C  0.70136578  0.77565235  0.25386014     0.36640
H3583       H  0.73958918  0.80155449  0.24186729     0.17010
O3584       O  0.71688014  0.83009138  0.23984670    -0.59910
H3585       H  0.67360502  0.78679199  0.25717633     0.17020
O3586       O  0.69570064  0.75777000  0.25764421    -0.60010
H3587       H  0.69352994  0.75190118  0.24524797     0.44020
H3588       H  0.71979597  0.83642064  0.25185912     0.43980
C3589       C  0.71434558  0.65105930  0.34634496    -0.05090
C3590       C  0.70929747  0.65133185  0.36525222    -0.32520
C3591       C  0.69130469  0.64605124  0.37080696     0.36730
C3592       C  0.67803581  0.64006348  0.35735219    -0.05450
C3593       C  0.68333558  0.63927696  0.33848307    -0.32420
C3594       C  0.70130271  0.64465162  0.33295587     0.36640
H3595       H  0.71910925  0.65633839  0.37569166     0.17010
O3596       O  0.68680668  0.64713253  0.38941546    -0.59910
H3597       H  0.67348377  0.63462201  0.32792476     0.17020
O3598       O  0.70591850  0.64380861  0.31436384    -0.60010
H3599       H  0.71245045  0.63165319  0.31275025     0.44020
H3600       H  0.68205043  0.66004675  0.39131169     0.43980
C3601       C  0.78483701  0.65431698  0.35074090    -0.05090
C3602       C  0.78910514  0.63523527  0.35216385    -0.32520
C3603       C  0.80698256  0.62929891  0.35771261     0.36730
C3604       C  0.82097123  0.64256282  0.36210731    -0.05450
C3605       C  0.81640954  0.66163719  0.36142650    -0.32420
C3606       C  0.79853903  0.66754193  0.35593344     0.36640
H3607       H  0.77877740  0.62487064  0.34826501     0.17010
O3608       O  0.81063679  0.61048083  0.35852070    -0.59910
H3609       H  0.82679689  0.67207262  0.36494427     0.17020
O3610       O  0.79469423  0.68633748  0.35544344    -0.60010
H3611       H  0.78822525  0.68910363  0.36739427     0.44020
H3612       H  0.81440805  0.60689227  0.34565651     0.43980
C3613       C  0.74987267  0.69547020  0.30641241    -0.05090
C3614       C  0.73726340  0.69445242  0.29130055    -0.32520
C3615       C  0.73690734  0.70833467  0.27763883     0.36730
C3616       C  0.74946156  0.72332667  0.27875556    -0.05450
C3617       C  0.76210511  0.72447114  0.29366502    -0.32420
C3618       C  0.76219555  0.71085970  0.30762690     0.36640
H3619       H  0.72775699  0.68276881  0.28994187     0.17010
O3620       O  0.72423253  0.70717488  0.26323995    -0.59910
H3621       H  0.77169657  0.73613335  0.29462733     0.17020
O3622       O  0.77411109  0.71299529  0.32254681    -0.60010
H3623       H  0.76645915  0.71893805  0.33249167     0.44020
H3624       H  0.73093427  0.70056692  0.25302966     0.43980
C3625       C  0.86199302  0.82278989  0.14309122    -0.05090
C3626       C  0.85872985  0.81909585  0.16204824    -0.32520
C3627       C  0.85282699  0.80141443  0.16788377     0.36730
C3628       C  0.84960600  0.78703537  0.15462001    -0.05450
C3629       C  0.85363659  0.79054747  0.13575515    -0.32420
C3630       C  0.85996061  0.80809738  0.12998856     0.36640
H3631       H  0.86052323  0.83002254  0.17241888     0.17010
O3632       O  0.85016895  0.79843770  0.18662623    -0.59910
H3633       H  0.85136753  0.77982435  0.12527411     0.17020
O3634       O  0.86364187  0.81079316  0.11138305    -0.60010
H3635       H  0.87713473  0.80781873  0.10992022     0.44020
H3636       H  0.86184717  0.79233005  0.19104292     0.43980
C3637       C  0.88927991  0.92930856  0.14143474    -0.05090
C3638       C  0.87929419  0.93960661  0.15486248    -0.32520
C3639       C  0.88450317  0.95799989  0.15924653     0.36730
C3640       C  0.90011737  0.96608300  0.15049258    -0.05450
C3641       C  0.91016051  0.95575469  0.13719675    -0.32420
C3642       C  0.90470335  0.93758531  0.13245531     0.36640
H3643       H  0.86733741  0.93346739  0.16177491     0.17010
O3644       O  0.87470456  0.96773388  0.17258965    -0.59910
H3645       H  0.92246434  0.96169825  0.13072221     0.17020
O3646       O  0.91515635  0.92763162  0.11976686    -0.60010
H3647       H  0.91048327  0.93160259  0.10732292     0.44020
H3648       H  0.86522001  0.97504869  0.16554616     0.43980
C3649       C  0.05245329  0.75055110  0.94155487    -0.05090
C3650       C  0.03348599  0.74963727  0.93673551    -0.32520
C3651       C  0.01977373  0.75021916  0.95066108     0.36730
C3652       C  0.02508724  0.75160022  0.96965470    -0.05450
C3653       C  0.04415607  0.75263501  0.97431339    -0.32420
C3654       C  0.05778832  0.75209904  0.96040459     0.36640
H3655       H  0.02934256  0.74865022  0.92217923     0.17010
O3656       O  0.00126231  0.74969891  0.94555219    -0.59910
H3657       H  0.04851335  0.75360921  0.98880832     0.17020
O3658       O  0.07632011  0.75340212  0.96530237    -0.60010
H3659       H  0.08074294  0.74030246  0.96651446     0.44020
H3660       H  0.99720752  0.76296139  0.94503284     0.43980
C3661       C  0.96378451  0.85090075  0.09619053    -0.05090
C3662       C  0.96013732  0.85451196  0.11514210    -0.32520
C3663       C  0.94240070  0.86045540  0.12104722     0.36730
C3664       C  0.92769028  0.86262385  0.10796454    -0.05450
C3665       C  0.93152283  0.85979261  0.08893372    -0.32420
C3666       C  0.94934610  0.85404908  0.08298167     0.36640
H3667       H  0.97093481  0.85220961  0.12555716     0.17010
O3668       O  0.93955649  0.86363447  0.13974927    -0.59910
H3669       H  0.92062128  0.86185067  0.07857236     0.17020
O3670       O  0.95269582  0.85214550  0.06416893    -0.60010
H3671       H  0.94483180  0.84153177  0.05994343     0.44020
H3672       H  0.94252929  0.87703295  0.14169410     0.43980
C3673       C  0.00032587  0.80579143  0.05757100    -0.05090
C3674       C  0.99987526  0.78685870  0.06238157    -0.32520
C3675       C  0.99996306  0.77311356  0.04843865     0.36730
C3676       C  0.00039249  0.77834442  0.02943556    -0.05450
C3677       C  0.00118826  0.79736132  0.02474907    -0.32420
C3678       C  0.00107049  0.81105564  0.03869576     0.36640
H3679       H  0.99941701  0.78277385  0.07695087     0.17010
O3680       O  0.99969623  0.75464459  0.05351336    -0.59910
H3681       H  0.00148081  0.80161276  0.01022453     0.17020
O3682       O  0.00176335  0.82955998  0.03379659    -0.60010
H3683       H  0.98850621  0.83363858  0.03289356     0.44020
H3684       H  0.01299572  0.75061420  0.05350014     0.43980
C3685       C  0.96948792  0.72340420  0.00007588    -0.05090
C3686       C  0.95501332  0.72424464  0.98688535    -0.32520
C3687       C  0.94090462  0.71079646  0.98677985     0.36730
C3688       C  0.94156274  0.69583962  0.99962643    -0.05450
C3689       C  0.95618228  0.69515290  0.01284069    -0.32420
C3690       C  0.96996944  0.70890044  0.01322233     0.36640
H3691       H  0.95451667  0.73554868  0.97684225     0.17010
O3692       O  0.92643180  0.71261647  0.97426736    -0.59910
H3693       H  0.95712309  0.68376154  0.02274249     0.17020
O3694       O  0.98397423  0.70796141  0.02635537    -0.60010
H3695       H  0.99430567  0.70099975  0.02020290     0.44020
H3696       H  0.91630484  0.71902958  0.98128648     0.43980
C3697       C  0.17796195  0.85996618  0.13873435    -0.05090
C3698       C  0.18503365  0.84239162  0.13348169    -0.32520
C3699       C  0.20319486  0.83695401  0.13858036     0.36730
C3700       C  0.21455633  0.84908266  0.14916874    -0.05450
C3701       C  0.20769518  0.86674640  0.15417724    -0.32420
C3702       C  0.18951381  0.87220038  0.14916178     0.36640
H3703       H  0.17646722  0.83283045  0.12541906     0.17010
O3704       O  0.20962722  0.81958646  0.13347655    -0.59910
H3705       H  0.21620749  0.87604875  0.16260312     0.17020
O3706       O  0.18302155  0.88931064  0.15502180    -0.60010
H3707       H  0.17696078  0.88694806  0.16724680     0.44020
H3708       H  0.21677015  0.82160908  0.12178901     0.43980
C3709       C  0.07085393  0.85933601  0.11138982    -0.05090
C3710       C  0.06559902  0.84058339  0.11345999    -0.32520
C3711       C  0.04760634  0.83465877  0.10849908     0.36730
C3712       C  0.03449294  0.84749711  0.10114755    -0.05450
C3713       C  0.03947362  0.86635181  0.09965442    -0.32420
C3714       C  0.05748769  0.87231027  0.10459008     0.36640
H3715       H  0.07550441  0.83041268  0.11882986     0.17010
O3716       O  0.04305381  0.81618085  0.11061329    -0.59910
H3717       H  0.02961846  0.87636949  0.09390864     0.17020
O3718       O  0.06193716  0.89079157  0.10230435    -0.60010
H3719       H  0.06675481  0.89172802  0.08934568     0.44020
H3720       H  0.03653286  0.81549595  0.12281455     0.43980
C3721       C  0.10893227  0.89274693  0.17707976    -0.05090
C3722       C  0.08981763  0.89529843  0.18035853    -0.32520
C3723       C  0.08329333  0.89978690  0.19827092     0.36730
C3724       C  0.09607008  0.90205314  0.21325272    -0.05450
C3725       C  0.11523114  0.89887272  0.20998191    -0.32420
C3726       C  0.12166568  0.89415438  0.19203756     0.36640
H3727       H  0.07986422  0.89353137  0.16902558     0.17010
O3728       O  0.06434171  0.90112016  0.20121306    -0.59910
H3729       H  0.12527332  0.90047304  0.22124675     0.17020
O3730       O  0.14038617  0.89089850  0.18925346    -0.60010
H3731       H  0.14558385  0.90307585  0.18526392     0.44020
H3732       H  0.06009367  0.91214921  0.19394953     0.43980
C3733       C  0.64181542  0.32361669  0.36162901    -0.05090
C3734       C  0.62823702  0.30979798  0.35826588    -0.32520
C3735       C  0.63336750  0.29172914  0.35248743     0.36730
C3736       C  0.65241689  0.28714509  0.35004046    -0.05450
C3737       C  0.66597310  0.30083389  0.35403157    -0.32420
C3738       C  0.66084588  0.31892527  0.35947032     0.36640
H3739       H  0.61349276  0.31308999  0.35970070     0.17010
O3740       O  0.61961194  0.27912008  0.34809910    -0.59910
H3741       H  0.68073138  0.29760651  0.35258560     0.17020
O3742       O  0.67461398  0.33191078  0.36244338    -0.60010
H3743       H  0.67700443  0.33748084  0.34999569     0.44020
H3744       H  0.61429087  0.27519972  0.36026242     0.43980
C3745       C  0.60698755  0.39132879  0.32237640    -0.05090
C3746       C  0.60879875  0.37902772  0.30718958    -0.32520
C3747       C  0.60407160  0.38476558  0.28902344     0.36730
C3748       C  0.59825753  0.40340278  0.28570855    -0.05450
C3749       C  0.59731865  0.41581348  0.30107467    -0.32420
C3750       C  0.60125691  0.40980897  0.31924107     0.36640
H3751       H  0.61348315  0.36479204  0.30949909     0.17010
O3752       O  0.60472598  0.37186412  0.27481984    -0.59910
H3753       H  0.59347644  0.43032729  0.29908923     0.17020
O3754       O  0.59973134  0.42221488  0.33384193    -0.60010
H3755       H  0.61241049  0.42760619  0.33539524     0.44020
H3756       H  0.59186058  0.36678098  0.27393247     0.43980
C3757       C  0.60690031  0.36321201  0.42832519    -0.05090
C3758       C  0.62075423  0.35983255  0.44194879    -0.32520
C3759       C  0.61603984  0.35364111  0.45987513     0.36730
C3760       C  0.59712860  0.35094116  0.46465901    -0.05450
C3761       C  0.58323634  0.35486603  0.45121070    -0.32420
C3762       C  0.58796357  0.36090768  0.43321990     0.36640
H3763       H  0.63542616  0.36149983  0.43857418     0.17010
O3764       O  0.63011136  0.34957109  0.47231556    -0.59910
H3765       H  0.56858820  0.35301380  0.45459520     0.17020
O3766       O  0.57395653  0.36395795  0.42042724    -0.60010
H3767       H  0.57027614  0.37723166  0.42215503     0.44020
H3768       H  0.63268890  0.33603953  0.47061980     0.43980
C3769       C  0.64325329  0.42998875  0.38784674    -0.05090
C3770       C  0.62985618  0.44423905  0.39043220    -0.32520
C3771       C  0.63513880  0.46230080  0.39591849     0.36730
C3772       C  0.65418377  0.46648632  0.39886979    -0.05450
C3773       C  0.66761078  0.45235585  0.39568825    -0.32420
C3774       C  0.66230353  0.43425102  0.39047129     0.36640
H3775       H  0.61509474  0.44130645  0.38861863     0.17010
O3776       O  0.62147433  0.47532367  0.39959961    -0.59910
H3777       H  0.68236505  0.45525694  0.39761214     0.17020
O3778       O  0.67588517  0.42083259  0.38821428    -0.60010
H3779       H  0.67779115  0.41542490  0.40083518     0.44020
H3780       H  0.61650922  0.47907733  0.38719345     0.43980
C3781       C  0.88849814  0.64185163  0.92744650    -0.05090
C3782       C  0.89306239  0.62833122  0.94100251    -0.32520
C3783       C  0.89890722  0.63356237  0.95899974     0.36730
C3784       C  0.90006534  0.65261517  0.96385396    -0.05450
C3785       C  0.89507360  0.66609960  0.95043204    -0.32420
C3786       C  0.88938869  0.66089744  0.93242127     0.36640
H3787       H  0.89250732  0.61358956  0.93754377     0.17010
O3788       O  0.90405890  0.61993984  0.97146216    -0.59910
H3789       H  0.89576562  0.68084409  0.95388010     0.17020
O3790       O  0.88521542  0.67461089  0.91970517    -0.60010
H3791       H  0.87173267  0.67738974  0.92154839     0.44020
H3792       H  0.91776906  0.61843231  0.96986405     0.43980
C3793       C  0.63653921  0.39589010  0.07075277    -0.05090
C3794       C  0.64226609  0.38228365  0.05770150    -0.32520
C3795       C  0.64777995  0.38724312  0.03964652     0.36730
C3796       C  0.64736940  0.40611891  0.03409299    -0.05450
C3797       C  0.64105834  0.41969614  0.04693057    -0.32420
C3798       C  0.63566491  0.41472658  0.06509460     0.36640
H3799       H  0.64305923  0.36769482  0.06165102     0.17010
O3800       O  0.65436784  0.37357177  0.02785073    -0.59910
H3801       H  0.64059423  0.43428902  0.04295313     0.17020
O3802       O  0.63003429  0.42846824  0.07727710    -0.60010
H3803       H  0.61629538  0.42949918  0.07550717     0.44020
H3804       H  0.66810348  0.37326982  0.02989779     0.43980
C3805       C  0.65410121  0.39847416  0.96421722    -0.05090
C3806       C  0.63504347  0.39885971  0.95946864    -0.32520
C3807       C  0.62900377  0.39386028  0.94152279     0.36730
C3808       C  0.64210777  0.38821539  0.92782654    -0.05450
C3809       C  0.66109029  0.38698587  0.93282435    -0.32420
C3810       C  0.66714464  0.39205774  0.95082263     0.36640
H3811       H  0.62479671  0.40382196  0.96948952     0.17010
O3812       O  0.61022914  0.39477660  0.93753761    -0.59910
H3813       H  0.67134886  0.38226149  0.92270810     0.17020
O3814       O  0.68575063  0.39025555  0.95537000    -0.60010
H3815       H  0.69242729  0.39941901  0.94745409     0.44020
H3816       H  0.60791868  0.40786508  0.93359526     0.43980
C3817       C  0.71384723  0.60260218  0.90367127    -0.05090
C3818       C  0.69804728  0.59164154  0.90807062    -0.32520
C3819       C  0.67994516  0.59732130  0.90334801     0.36730
C3820       C  0.67715907  0.61379449  0.89318360    -0.05450
C3821       C  0.69269717  0.62457776  0.88810318    -0.32420
C3822       C  0.71088126  0.61939234  0.89365135     0.36640
H3823       H  0.69960412  0.57833521  0.91506300     0.17010
O3824       O  0.66507240  0.58631494  0.90826002    -0.59910
H3825       H  0.69067168  0.63729515  0.88014952     0.17020
O3826       O  0.72542737  0.63105808  0.88945073    -0.60010
H3827       H  0.72719275  0.63891640  0.90076267     0.44020
H3828       H  0.66310373  0.57778680  0.89747507     0.43980
C3829       C  0.78455132  0.59674197  0.89814583    -0.05090
C3830       C  0.79317278  0.58782369  0.88289864    -0.32520
C3831       C  0.81147862  0.59265100  0.87760076     0.36730
C3832       C  0.82130444  0.60649668  0.88765878    -0.05450
C3833       C  0.81246034  0.61553900  0.90268655    -0.32420
C3834       C  0.79438890  0.61056536  0.90810853     0.36640
H3835       H  0.78582262  0.57695395  0.87531713     0.17010
O3836       O  0.81953429  0.58391789  0.86252132    -0.59910
H3837       H  0.81977883  0.62622381  0.91057636     0.17020
O3838       O  0.78648192  0.61912654  0.92338265    -0.60010
H3839       H  0.79037349  0.61143224  0.93424451     0.44020
H3840       H  0.81687380  0.59220008  0.85173194     0.43980
C3841       C  0.74952050  0.53277106  0.97454833    -0.05090
C3842       C  0.73291107  0.53786746  0.96527244    -0.32520
C3843       C  0.73291976  0.55084260  0.95070950     0.36730
C3844       C  0.74950735  0.56057186  0.94612660    -0.05450
C3845       C  0.76597353  0.55605521  0.95595520    -0.32420
C3846       C  0.76630215  0.54179252  0.96924314     0.36640
H3847       H  0.71969153  0.53154666  0.96886995     0.17010
O3848       O  0.71692574  0.55273398  0.94018302    -0.59910
H3849       H  0.77895716  0.56320663  0.95310746     0.17020
O3850       O  0.78335695  0.53639988  0.97628197    -0.60010
H3851       H  0.78728371  0.52558167  0.96849462     0.44020
H3852       H  0.70743804  0.55831447  0.94866486     0.43980
C3853       C  0.69336089  0.44518228  0.99881292    -0.05090
C3854       C  0.70381818  0.44852365  0.01516071    -0.32520
C3855       C  0.71753020  0.46239359  0.01592482     0.36730
C3856       C  0.72243815  0.47238425  0.99959900    -0.05450
C3857       C  0.71226157  0.46868822  0.98310951    -0.32420
C3858       C  0.69740219  0.45599764  0.98282082     0.36640
H3859       H  0.70133381  0.44055799  0.02773040     0.17010
O3860       O  0.72500070  0.46687132  0.03306532    -0.59910
H3861       H  0.71544949  0.47578133  0.97020041     0.17020
O3862       O  0.68616469  0.45533992  0.96722459    -0.60010
H3863       H  0.69424971  0.45067450  0.95693919     0.44020
H3864       H  0.73228441  0.45572224  0.03704068     0.43980
C3865       C  0.85015220  0.46603975  0.09817644    -0.05090
C3866       C  0.85339918  0.45226848  0.08442377    -0.32520
C3867       C  0.85853379  0.43403033  0.08928048     0.36730
C3868       C  0.86106192  0.42927285  0.10820619    -0.05450
C3869       C  0.85854185  0.44319577  0.12193719    -0.32420
C3870       C  0.85312282  0.46141082  0.11708675     0.36640
H3871       H  0.85150930  0.45554014  0.06975541     0.17010
O3872       O  0.86079013  0.42096647  0.07537694    -0.59910
H3873       H  0.86035242  0.43988389  0.13660396     0.17020
O3874       O  0.84953122  0.47414636  0.13101750    -0.60010
H3875       H  0.86199481  0.47792293  0.13583262     0.44020
H3876       H  0.84813910  0.41568028  0.07327640     0.43980
C3877       C  0.77898003  0.50105610  0.02942094    -0.05090
C3878       C  0.77415949  0.49594214  0.04772287    -0.32520
C3879       C  0.78759315  0.49606042  0.06193151     0.36730
C3880       C  0.80604964  0.50131721  0.05787732    -0.05450
C3881       C  0.81097220  0.50628741  0.03964131    -0.32420
C3882       C  0.79761630  0.50600727  0.02537356     0.36640
H3883       H  0.75988326  0.49215564  0.05105489     0.17010
O3884       O  0.78258316  0.49112401  0.07974004    -0.59910
H3885       H  0.82526138  0.51015644  0.03645452     0.17020
O3886       O  0.80295450  0.51038391  0.00751031    -0.60010
H3887       H  0.80541953  0.49820240  0.00130930     0.44020
H3888       H  0.77928785  0.50304564  0.08606601     0.43980
C3889       C  0.96524200  0.59680472  0.85146962    -0.05090
C3890       C  0.95306727  0.58357875  0.85924767    -0.32520
C3891       C  0.93484083  0.58856502  0.86454747     0.36730
C3892       C  0.92838504  0.60700965  0.86185118    -0.05450
C3893       C  0.94081904  0.62035178  0.85458300    -0.32420
C3894       C  0.95904758  0.61535533  0.84933651     0.36640
H3895       H  0.95762522  0.56920708  0.86087165     0.17010
O3896       O  0.92338899  0.57518291  0.87196436    -0.59910
H3897       H  0.93625176  0.63464542  0.85243647     0.17020
O3898       O  0.97040354  0.62851435  0.84136627    -0.60010
H3899       H  0.96816973  0.62742121  0.82771061     0.44020
H3900       H  0.92540198  0.57593962  0.88567417     0.43980
C3901       C  0.89868263  0.46524191  0.65421113    -0.05090
C3902       C  0.89561174  0.45141192  0.66784234    -0.32520
C3903       C  0.89018419  0.43327200  0.66283908     0.36730
C3904       C  0.88718118  0.42868105  0.64390808    -0.05450
C3905       C  0.88953036  0.44266911  0.63033874    -0.32420
C3906       C  0.89524995  0.46074585  0.63530341     0.36640
H3907       H  0.89785865  0.45454056  0.68250855     0.17010
O3908       O  0.88818344  0.42011811  0.67658577    -0.59910
H3909       H  0.88740990  0.43949362  0.61566296     0.17020
O3910       O  0.89873941  0.47343733  0.62142073    -0.60010
H3911       H  0.88624183  0.47737163  0.61676254     0.44020
H3912       H  0.90084048  0.41460745  0.67827113     0.43980
C3913       C  0.90365590  0.53597052  0.64981752    -0.05090
C3914       C  0.88456790  0.54058564  0.64913049    -0.32520
C3915       C  0.87865941  0.55848368  0.64376262     0.36730
C3916       C  0.89193459  0.57220956  0.63882424    -0.05450
C3917       C  0.91098166  0.56736342  0.63884708    -0.32420
C3918       C  0.91689240  0.54946609  0.64426467     0.36640
H3919       H  0.87417919  0.53048145  0.65339829     0.17010
O3920       O  0.85984689  0.56239591  0.64360261    -0.59910
H3921       H  0.92140437  0.57751155  0.63477052     0.17020
O3922       O  0.93561166  0.54508650  0.64356815    -0.60010
H3923       H  0.94161060  0.55270303  0.65351665     0.44020
H3924       H  0.85689064  0.56655600  0.65651005     0.43980
C3925       C  0.11243333  0.39469334  0.67696603    -0.05090
C3926       C  0.10898996  0.38093618  0.69054634    -0.32520
C3927       C  0.10323774  0.38578460  0.70863407     0.36730
C3928       C  0.10105912  0.40473019  0.71364019    -0.05450
C3929       C  0.10504959  0.41851267  0.70023452    -0.32420
C3930       C  0.11066571  0.41365148  0.68207818     0.36640
H3931       H  0.11025809  0.36624606  0.68702142     0.17010
O3932       O  0.09903484  0.37183147  0.72102186    -0.59910
H3933       H  0.10353976  0.43317791  0.70377575     0.17020
O3934       O  0.11378097  0.42756290  0.66933553    -0.60010
H3935       H  0.12717517  0.43084220  0.67084208     0.44020
H3936       H  0.08541630  0.36964352  0.71948382     0.43980
C3937       C  0.02803111  0.47112198  0.75066219    -0.05090
C3938       C  0.04695518  0.47600958  0.75261898    -0.32520
C3939       C  0.06090566  0.46227115  0.75226564     0.36730
C3940       C  0.05598422  0.44340842  0.75006712    -0.05450
C3941       C  0.03714811  0.43840745  0.74834103    -0.32420
C3942       C  0.02315968  0.45211615  0.74871598     0.36640
H3943       H  0.05093858  0.49053590  0.75411573     0.17010
O3944       O  0.07930214  0.46735045  0.75421929    -0.59910
H3945       H  0.03331444  0.42384428  0.74678192     0.17020
O3946       O  0.00478266  0.44678376  0.74737472    -0.60010
H3947       H  0.00034065  0.44588732  0.76046628     0.44020
H3948       H  0.08394410  0.46904992  0.74128147     0.43980
C3949       C  0.97160764  0.50021304  0.72159680    -0.05090
C3950       C  0.97682864  0.50153343  0.70275260    -0.32520
C3951       C  0.96320143  0.50175016  0.68870203     0.36730
C3952       C  0.94421220  0.50021767  0.69347821    -0.05450
C3953       C  0.93897394  0.49871810  0.71225953    -0.32420
C3954       C  0.95255551  0.49876833  0.72633295     0.36640
H3955       H  0.99146582  0.50262621  0.69898694     0.17010
O3956       O  0.96853367  0.50311249  0.67034875    -0.59910
H3957       H  0.92432729  0.49756331  0.71597399     0.17020
O3958       O  0.94712032  0.49724735  0.74464573    -0.60010
H3959       H  0.94793702  0.48371370  0.74750476     0.44020
H3960       H  0.96845287  0.51669262  0.66760846     0.43980
C3961       C  0.99964524  0.52865528  0.77870944    -0.05090
C3962       C  0.99980106  0.52363139  0.79766533    -0.32520
C3963       C  0.99950461  0.53737083  0.81159363     0.36730
C3964       C  0.99931238  0.55633573  0.80659493    -0.05450
C3965       C  0.99927695  0.56142894  0.78772339    -0.32420
C3966       C  0.99943680  0.54771917  0.77377149     0.36640
H3967       H  0.99995122  0.50903154  0.80164768     0.17010
O3968       O  0.99980720  0.53218979  0.83004040    -0.59910
H3969       H  0.99924145  0.57605883  0.78384262     0.17020
O3970       O  0.99966126  0.55307572  0.75537431    -0.60010
H3971       H  0.01307276  0.55317557  0.75183319     0.44020
H3972       H  0.98646954  0.53146489  0.83376913     0.43980
C3973       C  0.07242951  0.61183566  0.85608782    -0.05090
C3974       C  0.05762161  0.62469886  0.85476185    -0.32520
C3975       C  0.03956257  0.61873550  0.84978998     0.36730
C3976       C  0.03607979  0.59956979  0.84654476    -0.05450
C3977       C  0.05103236  0.58678130  0.84830685    -0.32420
C3978       C  0.06903828  0.59279933  0.85292996     0.36640
H3979       H  0.06010470  0.63939185  0.85747760     0.17010
O3980       O  0.02558408  0.63178235  0.84784144    -0.59910
H3981       H  0.04874898  0.57196308  0.84618865     0.17020
O3982       O  0.08325257  0.57992831  0.85446560    -0.60010
H3983       H  0.08350383  0.57635286  0.86785262     0.44020
H3984       H  0.02537606  0.63489132  0.83433907     0.43980
C3985       C  0.13860026  0.57296942  0.89238430    -0.05090
C3986       C  0.12743279  0.56254414  0.90462004    -0.32520
C3987       C  0.13241164  0.54411333  0.90930527     0.36730
C3988       C  0.14896293  0.53615435  0.90211105    -0.05450
C3989       C  0.16011057  0.54662170  0.88996628    -0.32420
C3990       C  0.15491420  0.56477535  0.88488085     0.36640
H3991       H  0.11475958  0.56861483  0.91035366     0.17010
O3992       O  0.12146367  0.53427249  0.92149124    -0.59910
H3993       H  0.17307957  0.54077600  0.88465715     0.17020
O3994       O  0.16642259  0.57480064  0.87335350    -0.60010
H3995       H  0.16296380  0.57091253  0.86048081     0.44020
H3996       H  0.11262075  0.52719617  0.91346514     0.43980
C3997       C  0.11246286  0.67998471  0.89296546    -0.05090
C3998       C  0.10960432  0.68393793  0.91197587    -0.32520
C3999       C  0.10353958  0.70169408  0.91784040     0.36730
C4000       C  0.10023102  0.71596229  0.90458718    -0.05450
C4001       C  0.10406634  0.71229445  0.88569776    -0.32420
C4002       C  0.11018961  0.69458159  0.87985334     0.36640
H4003       H  0.11168623  0.67312827  0.92235718     0.17010
O4004       O  0.10127536  0.70512031  0.93660778    -0.59910
H4005       H  0.10165567  0.72301196  0.87528749     0.17020
O4006       O  0.11335381  0.69161378  0.86116983    -0.60010
H4007       H  0.12678772  0.69449324  0.85930719     0.44020
H4008       H  0.09066369  0.69717475  0.94058074     0.43980
C4009       C  0.14250338  0.32253227  0.86191387    -0.05090
C4010       C  0.12917359  0.30811852  0.86100594    -0.32520
C4011       C  0.13413903  0.28998803  0.85526194     0.36730
C4012       C  0.15281391  0.28588699  0.85031230    -0.05450
C4013       C  0.16625471  0.30018639  0.85196516    -0.32420
C4014       C  0.16122311  0.31834732  0.85740453     0.36640
H4015       H  0.11465179  0.31097796  0.86433430     0.17010
O4016       O  0.12036844  0.27681652  0.85331138    -0.59910
H4017       H  0.18078227  0.29739744  0.84860892     0.17020
O4018       O  0.17470289  0.33193312  0.85787274    -0.60010
H4019       H  0.17494606  0.33715335  0.84504189     0.44020
H4020       H  0.11688861  0.27329068  0.86624511     0.43980
C4021       C  0.10809858  0.38943057  0.82077509    -0.05090
C4022       C  0.09041201  0.38449403  0.81378121    -0.32520
C4023       C  0.08505066  0.38941925  0.79558594     0.36730
C4024       C  0.09737490  0.39952853  0.78411203    -0.05450
C4025       C  0.11516349  0.40416139  0.79090928    -0.32420
C4026       C  0.12052901  0.39932845  0.80911783     0.36640
H4027       H  0.08070015  0.37682936  0.82244420     0.17010
O4028       O  0.06757689  0.38462924  0.78923999    -0.59910
H4029       H  0.12461939  0.41225282  0.78234624     0.17020
O4030       O  0.13772131  0.40493790  0.81556362    -0.60010
H4031       H  0.13545000  0.41717100  0.82174729     0.44020
H4032       H  0.06941985  0.37280948  0.78218093     0.43980
C4033       C  0.10496244  0.36238225  0.92684534    -0.05090
C4034       C  0.10742284  0.37421262  0.94232479    -0.32520
C4035       C  0.10250006  0.36832866  0.96036478     0.36730
C4036       C  0.09582141  0.34996896  0.96324953    -0.05450
C4037       C  0.09415277  0.33802138  0.94757897    -0.32420
C4038       C  0.09829534  0.34420877  0.92955989     0.36640
H4039       H  0.11285595  0.38818435  0.94035735     0.17010
O4040       O  0.10394093  0.38080159  0.97488843    -0.59910
H4041       H  0.08969407  0.32367838  0.94921044     0.17020
O4042       O  0.09619693  0.33220231  0.91470020    -0.60010
H4043       H  0.10859026  0.32610118  0.91313348     0.44020
H4044       H  0.09128521  0.38640111  0.97616818     0.43980
C4045       C  0.14050799  0.42873006  0.88947589    -0.05090
C4046       C  0.13951972  0.44383533  0.87707961    -0.32520
C4047       C  0.14463164  0.46187667  0.88291397     0.36730
C4048       C  0.15008823  0.46514310  0.90167818    -0.05450
C4049       C  0.15021437  0.44990330  0.91415235    -0.32420
C4050       C  0.14580515  0.43185377  0.90810651     0.36640
H4051       H  0.13525181  0.44153358  0.86270349     0.17010
O4052       O  0.14477455  0.47598064  0.86998898    -0.59910
H4053       H  0.15384388  0.45190724  0.92873180     0.17020
O4054       O  0.14657898  0.41733728  0.92057927    -0.60010
H4055       H  0.13374746  0.41637251  0.92573600     0.44020
H4056       H  0.15778371  0.47629909  0.86520033     0.43980
C4057       C  0.61234202  0.07322309  0.35610004    -0.05090
C4058       C  0.61013518  0.05914871  0.36960079    -0.32520
C4059       C  0.60450851  0.04106441  0.36454598     0.36730
C4060       C  0.60102649  0.03666700  0.34562415    -0.05450
C4061       C  0.60395367  0.05058545  0.33206281    -0.32420
C4062       C  0.60928366  0.06872240  0.33715084     0.36640
H4063       H  0.61230408  0.06225790  0.38428342     0.17010
O4064       O  0.60116318  0.02825591  0.37835675    -0.59910
H4065       H  0.60165921  0.04752695  0.31738798     0.17020
O4066       O  0.61114387  0.08196094  0.32346442    -0.60010
H4067       H  0.59843691  0.08737047  0.32182851     0.44020
H4068       H  0.61370774  0.02433159  0.38289487     0.43980
C4069       C  0.59633550  0.96589691  0.34948472    -0.05090
C4070       C  0.58271745  0.95312716  0.35550444    -0.32520
C4071       C  0.58767238  0.93503366  0.36112254     0.36730
C4072       C  0.60657354  0.92932563  0.36079326    -0.05450
C4073       C  0.62024302  0.94225869  0.35519513    -0.32420
C4074       C  0.61526197  0.96032068  0.34947081     0.36640
H4075       H  0.56807531  0.95714486  0.35564142     0.17010
O4076       O  0.57383672  0.92296027  0.36645748    -0.59910
H4077       H  0.63487514  0.93823908  0.35479584     0.17020
O4078       O  0.62894763  0.97212536  0.34321551    -0.60010
H4079       H  0.62941017  0.97015599  0.32948868     0.44020
H4080       H  0.57237675  0.92498528  0.38010306     0.43980
C4081       C  0.39794345  0.09743512  0.28470308    -0.05090
C4082       C  0.39548846  0.11644118  0.28893600    -0.32520
C4083       C  0.38979429  0.12217917  0.30679194     0.36730
C4084       C  0.38662159  0.10881718  0.32095521    -0.05450
C4085       C  0.38819904  0.08978283  0.31645050    -0.32420
C4086       C  0.39377270  0.08403567  0.29854075     0.36640
H4087       H  0.39861206  0.12696016  0.27855130     0.17010
O4088       O  0.38797139  0.14094933  0.31033601    -0.59910
H4089       H  0.38537008  0.07925579  0.32691164     0.17020
O4090       O  0.39467528  0.06527023  0.29452380    -0.60010
H4091       H  0.40511925  0.06026730  0.30221940     0.44020
H4092       H  0.37477036  0.14399744  0.30722350     0.43980
C4093       C  0.55538732  0.00186698  0.30641875    -0.05090
C4094       C  0.53649238  0.00085959  0.31144287    -0.32520
C4095       C  0.52257396  0.00102074  0.29767270     0.36730
C4096       C  0.52759926  0.00210431  0.27867537    -0.05450
C4097       C  0.54655020  0.00299178  0.27370991    -0.32420
C4098       C  0.56042611  0.00305684  0.28749013     0.36640
H4099       H  0.53257755  0.99993324  0.32603902     0.17010
O4100       O  0.50414514  0.99987040  0.30286616    -0.59910
H4101       H  0.55055239  0.00379327  0.25912874     0.17020
O4102       O  0.57889103  0.00388919  0.28236433    -0.60010
H4103       H  0.58194198  0.01739822  0.28221707     0.44020
H4104       H  0.50107843  0.98637798  0.30218832     0.43980
C4105       C  0.44340984  0.05800918  0.24930952    -0.05090
C4106       C  0.45996701  0.06037186  0.23904990    -0.32520
C4107       C  0.47377803  0.04647371  0.23901201     0.36730
C4108       C  0.47104505  0.02997202  0.24920916    -0.05450
C4109       C  0.45452304  0.02744753  0.25930482    -0.32420
C4110       C  0.44066673  0.04126901  0.25932060     0.36640
H4111       H  0.46229317  0.07311578  0.23126641     0.17010
O4112       O  0.48984352  0.04904736  0.22889938    -0.59910
H4113       H  0.45235849  0.01468575  0.26711371     0.17020
O4114       O  0.42440586  0.03816862  0.26896428    -0.60010
H4115       H  0.41544470  0.03331263  0.25953158     0.44020
H4116       H  0.49884672  0.05476832  0.23778899     0.43980
C4117       C  0.50046897  0.94376149  0.19497469    -0.05090
C4118       C  0.49718612  0.96223458  0.18946087    -0.32520
C4119       C  0.49715519  0.97667524  0.20262522     0.36730
C4120       C  0.50009001  0.97263003  0.22171088    -0.05450
C4121       C  0.50348546  0.95402136  0.22712748    -0.32420
C4122       C  0.50370779  0.93962506  0.21386096     0.36640
H4123       H  0.49476193  0.96545254  0.17485015     0.17010
O4124       O  0.49452943  0.99468881  0.19662600    -0.59910
H4125       H  0.50572277  0.95059689  0.24171038     0.17020
O4126       O  0.50715629  0.92160938  0.21942872    -0.60010
H4127       H  0.49465245  0.91619698  0.22190221     0.44020
H4128       H  0.50730042  0.99980873  0.19502292     0.43980
C4129       C  0.78419106  0.85102607  0.65266960    -0.05090
C4130       C  0.79746425  0.85597667  0.66637290    -0.32520
C4131       C  0.81550630  0.86171257  0.66140149     0.36730
C4132       C  0.82063832  0.86255507  0.64240927    -0.05450
C4133       C  0.80719067  0.85805923  0.62870816    -0.32420
C4134       C  0.78919682  0.85224191  0.63368412     0.36640
H4135       H  0.79388189  0.85519945  0.68106264     0.17010
O4136       O  0.82808677  0.86600361  0.67526465    -0.59910
H4137       H  0.81074797  0.85858428  0.61400282     0.17020
O4138       O  0.77688278  0.84709218  0.61986591    -0.60010
H4139       H  0.77866172  0.83341699  0.61832815     0.44020
H4140       H  0.82627131  0.87953944  0.67772923     0.43980
C4141       C  0.71369307  0.84839105  0.64874608    -0.05090
C4142       C  0.70476159  0.83882560  0.63408322    -0.32520
C4143       C  0.68664802  0.84396190  0.62836433     0.36730
C4144       C  0.67728761  0.85880036  0.63741104    -0.05450
C4145       C  0.68644306  0.86851719  0.65186404    -0.32420
C4146       C  0.70438608  0.86323259  0.65771411     0.36640
H4147       H  0.71174903  0.82718932  0.62727763     0.17010
O4148       O  0.67829697  0.83448648  0.61390378    -0.59910
H4149       H  0.67944076  0.87993794  0.65901984     0.17020
O4150       O  0.71260180  0.87241198  0.67245496    -0.60010
H4151       H  0.70882612  0.86533791  0.68372887     0.44020
H4152       H  0.68127988  0.84180017  0.60254478     0.43980
C4153       C  0.74819718  0.80724336  0.69246455    -0.05090
C4154       C  0.74704451  0.81278324  0.71121435    -0.32520
C4155       C  0.74722568  0.79945191  0.72544939     0.36730
C4156       C  0.74839969  0.78026733  0.72092841    -0.05450
C4157       C  0.74955210  0.77482050  0.70206267    -0.32420
C4158       C  0.74940705  0.78819193  0.68786533     0.36640
H4159       H  0.74622144  0.82749532  0.71479735     0.17010
O4160       O  0.74665839  0.80534127  0.74371460    -0.59910
H4161       H  0.75045163  0.76015230  0.69833265     0.17020
O4162       O  0.75078223  0.78257111  0.66956312    -0.60010
H4163       H  0.73767840  0.78134379  0.66512819     0.44020
H4164       H  0.75993066  0.80601994  0.74775236     0.43980
C4165       C  0.84689538  0.65127966  0.71523904    -0.05090
C4166       C  0.83343470  0.64490149  0.70238575    -0.32520
C4167       C  0.83860935  0.63889901  0.68447042     0.36730
C4168       C  0.85754442  0.63939878  0.67900864    -0.05450
C4169       C  0.87105827  0.64540244  0.69206712    -0.32420
C4170       C  0.86585185  0.65136982  0.71000799     0.36640
H4171       H  0.81876987  0.64476446  0.70622441     0.17010
O4172       O  0.82496694  0.63292081  0.67235128    -0.59910
H4173       H  0.88570669  0.64592735  0.68823197     0.17020
O4174       O  0.87930992  0.65788411  0.72206632    -0.60010
H4175       H  0.87970599  0.67157639  0.71998570     0.44020
H4176       H  0.82402635  0.61926104  0.67444848     0.43980
C4177       C  0.84722664  0.65255604  0.78593356    -0.05090
C4178       C  0.83411422  0.64802233  0.79982588    -0.32520
C4179       C  0.83993221  0.64304074  0.81781848     0.36730
C4180       C  0.85907638  0.64269619  0.82226711    -0.05450
C4181       C  0.87228256  0.64690814  0.80846862    -0.32420
C4182       C  0.86648232  0.65186710  0.79037837     0.36640
H4183       H  0.81926351  0.64839846  0.79671827     0.17010
O4184       O  0.82678585  0.63884445  0.83109450    -0.59910
H4185       H  0.88709493  0.64633497  0.81173390     0.17020
O4186       O  0.87970996  0.65638358  0.77730704    -0.60010
H4187       H  0.88099307  0.67015788  0.77813736     0.44020
H4188       H  0.82514368  0.62510731  0.83028411     0.43980
C4189       C  0.80584460  0.69598009  0.74985514    -0.05090
C4190       C  0.79152980  0.69560310  0.73628232    -0.32520
C4191       C  0.77774660  0.70951326  0.73581656     0.36730
C4192       C  0.77785938  0.72383969  0.74927177    -0.05450
C4193       C  0.79202380  0.72437283  0.76280142    -0.32420
C4194       C  0.80616763  0.71083360  0.76296120     0.36640
H4195       H  0.79082131  0.68435262  0.72613682     0.17010
O4196       O  0.76413260  0.70892527  0.72226499    -0.59910
H4197       H  0.79228960  0.73555570  0.77306266     0.17020
O4198       O  0.82039719  0.71253201  0.77575954    -0.60010
H4199       H  0.83060791  0.71897596  0.76901900     0.44020
H4200       H  0.75364270  0.70191802  0.72793036     0.43980
C4201       C  0.63668275  0.67970572  0.85678540    -0.05090
C4202       C  0.63979679  0.68351542  0.83781991    -0.32520
C4203       C  0.64593448  0.70117767  0.83203992     0.36730
C4204       C  0.64911543  0.71549484  0.84534391    -0.05450
C4205       C  0.64532271  0.71187155  0.86422835    -0.32420
C4206       C  0.63907841  0.69427594  0.86997720     0.36640
H4207       H  0.63770829  0.67270027  0.82738846     0.17010
O4208       O  0.64818048  0.70450453  0.81328387    -0.59910
H4209       H  0.64767212  0.72258966  0.87470387     0.17020
O4210       O  0.63584504  0.69141374  0.88864195    -0.60010
H4211       H  0.62247661  0.69469587  0.89052295     0.44020
H4212       H  0.65894208  0.69662393  0.80934591     0.43980
C4213       C  0.69404445  0.75214121  0.80709373    -0.05090
C4214       C  0.71288565  0.74988328  0.81201795    -0.32520
C4215       C  0.72679450  0.75028981  0.79829701     0.36730
C4216       C  0.72182249  0.75266316  0.77931683    -0.05450
C4217       C  0.70286722  0.75502080  0.77453758    -0.32420
C4218       C  0.68903486  0.75478062  0.78828889     0.36640
H4219       H  0.71679571  0.74796123  0.82653892     0.17010
O4220       O  0.74518243  0.74860885  0.80362376    -0.59910
H4221       H  0.69873082  0.75676289  0.76005869     0.17020
O4222       O  0.67063822  0.75717455  0.78325811    -0.60010
H4223       H  0.66569732  0.74436025  0.78144373     0.44020
H4224       H  0.74981295  0.76161228  0.80475661     0.43980
C4225       C  0.53433214  0.65049449  0.90352715    -0.05090
C4226       C  0.54881902  0.64891672  0.91686110    -0.32520
C4227       C  0.56696386  0.64354799  0.91167628     0.36730
C4228       C  0.57092515  0.63907884  0.89290190    -0.05450
C4229       C  0.55633727  0.63998170  0.87968161    -0.32420
C4230       C  0.53823586  0.64563516  0.88479998     0.36640
H4231       H  0.54618524  0.65223389  0.93141170     0.17010
O4232       O  0.58073618  0.64305941  0.92506761    -0.59910
H4233       H  0.55902808  0.63671188  0.86512840     0.17020
O4234       O  0.52487670  0.64760277  0.87112468    -0.60010
H4235       H  0.52138609  0.63467967  0.86749498     0.44020
H4236       H  0.58593487  0.65589274  0.92540622     0.43980
C4237       C  0.46328150  0.65329568  0.90043180    -0.05090
C4238       C  0.45041902  0.66661499  0.89369694    -0.32520
C4239       C  0.43241942  0.66141367  0.88799028     0.36730
C4240       C  0.42689649  0.64256456  0.88896691    -0.05450
C4241       C  0.43993247  0.62915818  0.89526914    -0.32420
C4242       C  0.45792144  0.63440044  0.90108547     0.36640
H4243       H  0.45431037  0.68122113  0.89302806     0.17010
O4244       O  0.42030077  0.67495186  0.88175161    -0.59910
H4245       H  0.43603008  0.61457336  0.89616833     0.17020
O4246       O  0.46986951  0.62104220  0.90801296    -0.60010
H4247       H  0.46777107  0.62107559  0.92171758     0.44020
H4248       H  0.42236434  0.67559590  0.86806036     0.43980
C4249       C  0.49822934  0.72378690  0.97023597    -0.05090
C4250       C  0.50239579  0.72847904  0.95160656    -0.32520
C4251       C  0.50264570  0.71477953  0.93760832     0.36730
C4252       C  0.49841974  0.69619061  0.94208356    -0.05450
C4253       C  0.49409745  0.69142714  0.96051118    -0.32420
C4254       C  0.49426367  0.70495949  0.97461164     0.36640
H4255       H  0.50539099  0.74280775  0.94784779     0.17010
O4256       O  0.50713606  0.71963453  0.91963969    -0.59910
H4257       H  0.49099876  0.67704641  0.96403096     0.17020
O4258       O  0.49105133  0.69947356  0.99267615    -0.60010
H4259       H  0.50364154  0.69735452  0.99816683     0.44020
H4260       H  0.49499378  0.72233660  0.91344032     0.43980
C4261       C  0.52900609  0.77943682  0.00000036    -0.05090
C4262       C  0.52441896  0.79795985  0.00492195    -0.32520
C4263       C  0.53802622  0.81190934  0.00495366     0.36730
C4264       C  0.55644350  0.80755206  0.99970849    -0.05450
C4265       C  0.56119313  0.78918967  0.99481710    -0.32420
C4266       C  0.54772016  0.77508372  0.99521386     0.36640
H4267       H  0.51017612  0.80173122  0.00852885     0.17010
O4268       O  0.53322463  0.82977116  0.01013755    -0.59910
H4269       H  0.57547034  0.78575053  0.99098914     0.17020
O4270       O  0.55312350  0.75708435  0.99126173    -0.60010
H4271       H  0.55562611  0.75126727  0.00358901     0.44020
H4272       H  0.52993271  0.83621269  0.99831346     0.43980
C4273       C  0.40368857  0.71548198  0.09994926    -0.05090
C4274       C  0.38458314  0.71118643  0.10104928    -0.32520
C4275       C  0.37866593  0.69340885  0.10661717     0.36730
C4276       C  0.39195195  0.67948177  0.11135602    -0.05450
C4277       C  0.41103085  0.68399594  0.11087277    -0.32420
C4278       C  0.41694933  0.70176004  0.10523504     0.36640
H4279       H  0.37416526  0.72146446  0.09700443     0.17010
O4280       O  0.35982913  0.68984126  0.10725860    -0.59910
H4281       H  0.42147771  0.67368515  0.11475554     0.17020
O4282       O  0.43572029  0.70579681  0.10550404    -0.60010
H4283       H  0.44136405  0.69804135  0.09544817     0.44020
H4284       H  0.35641642  0.68582169  0.09441114     0.43980
C4285       C  0.44390589  0.75128274  0.05633651    -0.05090
C4286       C  0.46284091  0.75130364  0.06140514    -0.32520
C4287       C  0.47672111  0.75149461  0.04766673     0.36730
C4288       C  0.47164185  0.75177019  0.02858769    -0.05450
C4289       C  0.45260303  0.75167931  0.02362466    -0.32420
C4290       C  0.43876961  0.75151199  0.03738025     0.36640
H4291       H  0.46683006  0.75107873  0.07603514     0.17010
O4292       O  0.49517023  0.75109527  0.05302042    -0.59910
H4293       H  0.44845814  0.75190019  0.00903991     0.17020
O4294       O  0.42026899  0.75126072  0.03220711    -0.60010
H4295       H  0.41638207  0.76457729  0.03179551     0.44020
H4296       H  0.49879002  0.73769963  0.05276140     0.43980
C4297       C  0.60670353  0.86139136  0.92724279    -0.05090
C4298       C  0.58909079  0.86661471  0.93426498    -0.32520
C4299       C  0.58377167  0.86166838  0.95244709     0.36730
C4300       C  0.59608936  0.85132427  0.96386132    -0.05450
C4301       C  0.61371961  0.84626421  0.95698507    -0.32420
C4302       C  0.61902478  0.85105947  0.93880970     0.36640
H4303       H  0.57944575  0.87457641  0.92567121     0.17010
O4304       O  0.56640867  0.86676803  0.95887191    -0.59910
H4305       H  0.62315145  0.83798258  0.96552355     0.17020
O4306       O  0.63612200  0.84512352  0.93236274    -0.60010
H4307       H  0.63367913  0.83296110  0.92613329     0.44020
H4308       H  0.56841940  0.87858948  0.96586491     0.43980
C4309       C  0.64022541  0.82271490  0.85921393    -0.05090
C4310       C  0.65439680  0.81332504  0.86909986    -0.32520
C4311       C  0.65949327  0.79499284  0.86422796     0.36730
C4312       C  0.65064791  0.78600042  0.84908692    -0.05450
C4313       C  0.63649015  0.79534579  0.83922645    -0.32420
C4314       C  0.63111731  0.81350766  0.84430456     0.36640
H4315       H  0.66140203  0.82015611  0.88069660     0.17010
O4316       O  0.67352711  0.78617134  0.87394712    -0.59910
H4317       H  0.62993451  0.78870974  0.82725464     0.17020
O4318       O  0.61773662  0.82257118  0.83389796    -0.60010
H4319       H  0.60559018  0.81833472  0.83901085     0.44020
H4320       H  0.66704801  0.77861116  0.88353870     0.43980
C4321       C  0.60519222  0.88823337  0.82073744    -0.05090
C4322       C  0.61865775  0.89044816  0.80659918    -0.32520
C4323       C  0.61345789  0.89573175  0.78845274     0.36730
C4324       C  0.59446824  0.89893191  0.78411516    -0.05450
C4325       C  0.58094586  0.89592344  0.79805304    -0.32420
C4326       C  0.58615133  0.89080895  0.81622164     0.36640
H4327       H  0.63339541  0.88854649  0.80969816     0.17010
O4328       O  0.62716234  0.89907606  0.77550214    -0.59910
H4329       H  0.56623447  0.89809132  0.79498686     0.17020
O4330       O  0.57249426  0.88873913  0.82948643    -0.60010
H4331       H  0.57056939  0.90141863  0.83482003     0.44020
H4332       H  0.63133208  0.88654790  0.77118164     0.43980
C4333       C  0.63635268  0.85826655  0.17738236    -0.05090
C4334       C  0.63879810  0.87177054  0.19151882    -0.32520
C4335       C  0.64457302  0.86670778  0.20954848     0.36730
C4336       C  0.64798933  0.84778242  0.21381569    -0.05450
C4337       C  0.64487900  0.83421482  0.19983976    -0.32420
C4338       C  0.63933824  0.83930829  0.18175449     0.36640
H4339       H  0.63670120  0.88646210  0.18850341     0.17010
O4340       O  0.64812575  0.88049933  0.22243852    -0.59910
H4341       H  0.64715234  0.81954311  0.20282832     0.17020
O4342       O  0.63720199  0.82563005  0.16844467    -0.60010
H4343       H  0.64982547  0.82387040  0.16294912     0.44020
H4344       H  0.63564908  0.88516742  0.22639356     0.43980
C4345       C  0.60048726  0.84858143  0.03409901    -0.05090
C4346       C  0.59705120  0.86693006  0.04006878    -0.32520
C4347       C  0.60202667  0.87265918  0.05814211     0.36730
C4348       C  0.61091259  0.86001334  0.07050113    -0.05450
C4349       C  0.61469915  0.84174411  0.06431311    -0.32420
C4350       C  0.60959313  0.83601902  0.04626178     0.36640
H4351       H  0.58977758  0.87662457  0.03094877     0.17010
O4352       O  0.59759220  0.89049521  0.06372634    -0.59910
H4353       H  0.62156372  0.83183830  0.07350929     0.17020
O4354       O  0.61326070  0.81800390  0.04071815    -0.60010
H4355       H  0.62527877  0.81864108  0.03384420     0.44020
H4356       H  0.58500390  0.88954555  0.06946095     0.43980
C4357       C  0.57043321  0.89487832  0.13626040    -0.05090
C4358       C  0.55648279  0.88134244  0.13909985    -0.32520
C4359       C  0.53842249  0.88646121  0.14483379     0.36730
C4360       C  0.53389662  0.90543771  0.14766149    -0.05450
C4361       C  0.54759687  0.91901388  0.14399217    -0.32420
C4362       C  0.56568122  0.91390147  0.13837724     0.36640
H4363       H  0.55971261  0.86662161  0.13744451     0.17010
O4364       O  0.52561630  0.87272508  0.14847829    -0.59910
H4365       H  0.54439648  0.93370715  0.14595676     0.17020
O4366       O  0.57874850  0.92762140  0.13575394    -0.60010
H4367       H  0.57746132  0.93126847  0.12244500     0.44020
H4368       H  0.52711089  0.86991172  0.16197187     0.43980
C4369       C  0.39134772  0.14072069  0.07126740    -0.05090
C4370       C  0.41029765  0.13949504  0.06626104    -0.32520
C4371       C  0.41622425  0.14458701  0.04834775     0.36730
C4372       C  0.40317476  0.15121774  0.03505677    -0.05450
C4373       C  0.38417225  0.15193142  0.03982648    -0.32420
C4374       C  0.37821537  0.14686980  0.05775081     0.36640
H4375       H  0.42061078  0.13464507  0.07628479     0.17010
O4376       O  0.43487459  0.14319856  0.04402007    -0.59910
H4377       H  0.37397125  0.15709591  0.02984022     0.17020
O4378       O  0.35953281  0.14828168  0.06192486    -0.60010
H4379       H  0.35775904  0.16124886  0.06656684     0.44020
H4380       H  0.43625446  0.13096916  0.03758874     0.43980
C4381       C  0.40233660  0.10207462  0.21427282    -0.05090
C4382       C  0.38390522  0.09906526  0.20830836    -0.32520
C4383       C  0.37824957  0.10399343  0.19020900     0.36730
C4384       C  0.39105369  0.11241706  0.17778244    -0.05450
C4385       C  0.40940962  0.11577945  0.18396008    -0.32420
C4386       C  0.41506118  0.11071728  0.20203393     0.36640
H4387       H  0.37405290  0.09218956  0.21747161     0.17010
O4388       O  0.36026833  0.10008527  0.18472334    -0.59910
H4389       H  0.41944204  0.12231614  0.17475099     0.17020
O4390       O  0.43315069  0.11404311  0.20754747    -0.60010
H4391       H  0.43268618  0.12616101  0.21431127     0.44020
H4392       H  0.36089042  0.08741306  0.17907639     0.43980
C4393       C  0.13847726  0.17840076  0.85697531    -0.05090
C4394       C  0.14373773  0.19151781  0.87073860    -0.32520
C4395       C  0.14961659  0.20952449  0.86585973     0.36730
C4396       C  0.15014742  0.21484213  0.84693290    -0.05450
C4397       C  0.14444421  0.20188788  0.83322077    -0.32420
C4398       C  0.13864890  0.18387345  0.83807420     0.36640
H4399       H  0.14370889  0.18769850  0.88538438     0.17010
O4400       O  0.15542821  0.22153650  0.87966839    -0.59910
H4401       H  0.14465818  0.20571466  0.81857406     0.17020
O4402       O  0.13360375  0.17165307  0.82415113    -0.60010
H4403       H  0.11999907  0.17374391  0.82225125     0.44020
H4404       H  0.16914526  0.21956916  0.88066363     0.43980
C4405       C  0.07163152  0.14076771  0.89088667    -0.05090
C4406       C  0.05926436  0.12784484  0.89877222    -0.32520
C4407       C  0.04102991  0.13329307  0.90365709     0.36730
C4408       C  0.03520098  0.15191335  0.90093806    -0.05450
C4409       C  0.04761653  0.16475227  0.89296638    -0.32420
C4410       C  0.06562832  0.15921370  0.88769367     0.36640
H4411       H  0.06371351  0.11352302  0.90100040     0.17010
O4412       O  0.02916353  0.12047803  0.91142620    -0.59910
H4413       H  0.04336587  0.17917986  0.89103799     0.17020
O4414       O  0.07759206  0.17213161  0.88022713    -0.60010
H4415       H  0.07518751  0.17179407  0.86656672     0.44020
H4416       H  0.03103554  0.12167070  0.92512338     0.43980
C4417       C  0.89143092  0.11022945  0.67800798    -0.05090
C4418       C  0.90539283  0.12008366  0.68769425    -0.32520
C4419       C  0.91019852  0.11520428  0.70609332     0.36730
C4420       C  0.90129698  0.10006599  0.71483836    -0.05450
C4421       C  0.88742749  0.09017940  0.70514552    -0.32420
C4422       C  0.88231840  0.09528424  0.68694356     0.36640
H4423       H  0.91241797  0.13169089  0.68106396     0.17010
O4424       O  0.92400228  0.12491448  0.71521859    -0.59910
H4425       H  0.88082620  0.07821514  0.71158530     0.17020
O4426       O  0.86914973  0.08490615  0.67759493    -0.60010
H4427       H  0.85690219  0.08999232  0.68173000     0.44020
H4428       H  0.91732617  0.13457756  0.72264880     0.43980
C4429       C  0.97049648  0.02881485  0.75006797    -0.05090
C4430       C  0.97516822  0.04736286  0.75466729    -0.32520
C4431       C  0.96153052  0.06142585  0.75474397     0.36730
C4432       C  0.94297673  0.05713441  0.74993899    -0.05450
C4433       C  0.93817344  0.03874431  0.74532831    -0.32420
C4434       C  0.95168882  0.02455487  0.74562775     0.36640
H4435       H  0.98948851  0.05104963  0.75799297     0.17010
O4436       O  0.96643839  0.07933029  0.75953766    -0.59910
H4437       H  0.92381235  0.03534186  0.74183047     0.17020
O4438       O  0.94624138  0.00655287  0.74193796    -0.60010
H4439       H  0.94403195  0.00086641  0.75436010     0.44020
H4440       H  0.96937298  0.08556475  0.74754030     0.43980
C4441       C  0.09907015  0.03533367  0.84729211    -0.05090
C4442       C  0.09041430  0.04421527  0.86246653    -0.32520
C4443       C  0.09534230  0.06245962  0.86756372     0.36730
C4444       C  0.10898586  0.07221488  0.85725737    -0.05450
C4445       C  0.11761509  0.06329600  0.84200485    -0.32420
C4446       C  0.11281911  0.04491701  0.83708421     0.36640
H4447       H  0.07944696  0.03713905  0.87008577     0.17010
O4448       O  0.08598150  0.07101235  0.88199535    -0.59910
H4449       H  0.12820148  0.07051886  0.83400811     0.17020
O4450       O  0.12128259  0.03658688  0.82200043    -0.60010
H4451       H  0.13180299  0.02922236  0.82732207     0.44020
H4452       H  0.09226751  0.06654979  0.89353643     0.43980
C4453       C  0.05571319  0.00007706  0.80637596    -0.05090
C4454       C  0.06098359  0.00015809  0.78754314    -0.32520
C4455       C  0.04739030  0.00037331  0.77345639     0.36730
C4456       C  0.02823826  0.00045845  0.77819932    -0.05450
C4457       C  0.02303829  0.00051768  0.79712662    -0.32420
C4458       C  0.03666755  0.00021695  0.81118920     0.36640
H4459       H  0.07567243  0.00014698  0.78379262     0.17010
O4460       O  0.05295639  0.00075760  0.75511854    -0.59910
H4461       H  0.00838193  0.00057323  0.80099031     0.17020
O4462       O  0.03129232  0.00037246  0.82958679    -0.60010
H4463       H  0.03058094  0.98702635  0.83320711     0.44020
H4464       H  0.05288529  0.01416429  0.75164041     0.43980
C4465       C  0.96403520  0.90064035  0.65211584    -0.05090
C4466       C  0.95101836  0.89537877  0.66582845    -0.32520
C4467       C  0.93295446  0.88956319  0.66091180     0.36730
C4468       C  0.92750134  0.88903615  0.64196167    -0.05450
C4469       C  0.94069906  0.89390238  0.62822698    -0.32420
C4470       C  0.95876180  0.89973077  0.63316765     0.36640
H4471       H  0.95483329  0.89599029  0.68049605     0.17010
O4472       O  0.92065816  0.88489200  0.67480575    -0.59910
H4473       H  0.93689467  0.89362762  0.61355406     0.17020
O4474       O  0.97088697  0.90516481  0.61939761    -0.60010
H4475       H  0.96897352  0.91884312  0.61814369     0.44020
H4476       H  0.92266133  0.87133574  0.67691527     0.43980
C4477       C  0.03465901  0.90258804  0.64966443    -0.05090
C4478       C  0.04447468  0.91370123  0.63690496    -0.32520
C4479       C  0.06270351  0.90888042  0.63140231     0.36730
C4480       C  0.07139578  0.89279967  0.63879508    -0.05450
C4481       C  0.06136745  0.88152049  0.65130353    -0.32420
C4482       C  0.04323482  0.88645520  0.65692744     0.36640
H4483       H  0.03806723  0.92631067  0.63143632     0.17010
O4484       O  0.07185071  0.91994857  0.61878896    -0.59910
H4485       H  0.06782262  0.86912011  0.65717954     0.17020
O4486       O  0.03418549  0.87571566  0.66990122    -0.60010
H4487       H  0.03748823  0.88128904  0.68218950     0.44020
H4488       H  0.06925734  0.91424081  0.60639432     0.43980
C4489       C  0.00028006  0.97272830  0.72072669    -0.05090
C4490       C  0.98715562  0.95831970  0.72165902    -0.32520
C4491       C  0.98702538  0.94409073  0.70824075     0.36730
C4492       C  0.99975399  0.94454358  0.69312451    -0.05450
C4493       C  0.01289886  0.95913238  0.69232692    -0.32420
C4494       C  0.01333668  0.97302594  0.70611231     0.36640
H4495       H  0.97723030  0.95790834  0.73308666     0.17010
O4496       O  0.97467960  0.92962463  0.71034907    -0.59910
H4497       H  0.02276437  0.95991857  0.68088843     0.17020
O4498       O  0.02655380  0.98684061  0.70520543    -0.60010
H4499       H  0.02043740  0.99720685  0.69830156     0.44020
H4500       H  0.98190315  0.91962341  0.71671565     0.43980
C4501       C  0.10703819  0.92852219  0.86097338    -0.05090
C4502       C  0.11724020  0.93780871  0.84706672    -0.32520
C4503       C  0.11210963  0.95579431  0.84128434     0.36730
C4504       C  0.09693710  0.96500565  0.84980212    -0.05450
C4505       C  0.08688484  0.95591752  0.86391438    -0.32420
C4506       C  0.09186640  0.93778924  0.86955464     0.36640
H4507       H  0.12893633  0.93089046  0.84029656     0.17010
O4508       O  0.12177426  0.96414421  0.82704722    -0.59910
H4509       H  0.07500216  0.96281268  0.87037070     0.17020
O4510       O  0.08192720  0.92934011  0.88353173    -0.60010
H4511       H  0.08895383  0.93212589  0.89518874     0.44020
H4512       H  0.11502175  0.96054517  0.81545083     0.43980
C4513       C  0.10593120  0.82292041  0.88973018    -0.05090
C4514       C  0.10096389  0.82012515  0.90837979    -0.32520
C4515       C  0.09623738  0.80230580  0.91480648     0.36730
C4516       C  0.09593773  0.78691162  0.90229922    -0.05450
C4517       C  0.10147169  0.78973444  0.88365482    -0.32420
C4518       C  0.10662452  0.80757100  0.87740795     0.36640
H4519       H  0.10120812  0.83174770  0.91814505     0.17010
O4520       O  0.09292106  0.79986843  0.93355108    -0.59910
H4521       H  0.10148241  0.77818358  0.87382290     0.17020
O4522       O  0.11235434  0.80986564  0.85927580    -0.60010
H4523       H  0.10089200  0.81338849  0.85225032     0.44020
H4524       H  0.08144453  0.80721289  0.93634575     0.43980
C4525       C  0.34835126  0.03692227  0.09945323    -0.05090
C4526       C  0.33912505  0.04572032  0.11439329    -0.32520
C4527       C  0.34388076  0.06395544  0.11978334     0.36730
C4528       C  0.35803088  0.07358207  0.11015537    -0.05450
C4529       C  0.36750805  0.06456046  0.09546531    -0.32420
C4530       C  0.36253659  0.04647518  0.08989953     0.36640
H4531       H  0.32795386  0.03855679  0.12161971     0.17010
O4532       O  0.33469213  0.07218455  0.13449635    -0.59910
H4533       H  0.37844403  0.07176598  0.08792524     0.17020
O4534       O  0.37136773  0.03835103  0.07490500    -0.60010
H4535       H  0.36383400  0.04204911  0.06383704     0.44020
H4536       H  0.34264624  0.06964328  0.14559886     0.43980
C4537       C  0.30466804  0.00243612  0.05758961    -0.05090
C4538       C  0.30518729  0.98953637  0.04271993    -0.32520
C4539       C  0.29109019  0.98932144  0.02918948     0.36730
C4540       C  0.27632683  0.00230936  0.03016103    -0.05450
C4541       C  0.27568367  0.01527600  0.04482301    -0.32420
C4542       C  0.28953075  0.01521973  0.05868695     0.36640
H4543       H  0.31669553  0.97971928  0.04139272     0.17010
O4544       O  0.29191558  0.97645076  0.01494286    -0.59910
H4545       H  0.26425070  0.02524519  0.04566560     0.17020
O4546       O  0.28789019  0.02748016  0.07338169    -0.60010
H4547       H  0.28176971  0.02027598  0.08346780     0.44020
H4548       H  0.29849747  0.98286032  0.00461005     0.43980
C4549       C  0.28427956  0.09767594  0.89779880    -0.05090
C4550       C  0.29235076  0.11343287  0.90614665    -0.32520
C4551       C  0.31054125  0.11884537  0.90157574     0.36730
C4552       C  0.32101469  0.10834854  0.88851973    -0.05450
C4553       C  0.31288346  0.09257219  0.88009624    -0.32420
C4554       C  0.29455900  0.08727283  0.88459919     0.36640
H4555       H  0.28470694  0.12123133  0.91669403     0.17010
O4556       O  0.31835994  0.13376158  0.91078521    -0.59910
H4557       H  0.32069166  0.08444087  0.86993723     0.17020
O4558       O  0.28693749  0.07173823  0.87633377    -0.60010
H4559       H  0.27961907  0.07655102  0.86555813     0.44020
H4560       H  0.31366904  0.14498638  0.90412849     0.43980
C4561       C  0.17748838  0.11254874  0.89218542    -0.05090
C4562       C  0.18971668  0.10394080  0.87937369    -0.32520
C4563       C  0.20794563  0.09900694  0.88457057     0.36730
C4564       C  0.21439180  0.10286066  0.90277125    -0.05450
C4565       C  0.20236717  0.11178452  0.91552190    -0.32420
C4566       C  0.18408120  0.11675733  0.91031617     0.36640
H4567       H  0.18500142  0.10055488  0.86535737     0.17010
O4568       O  0.21909915  0.08970155  0.87198834    -0.59910
H4569       H  0.20711232  0.11465771  0.92964267     0.17020
O4570       O  0.17276664  0.12550154  0.92312878    -0.60010
H4571       H  0.17474349  0.13906090  0.92112601     0.44020
H4572       H  0.21692737  0.07623550  0.87438028     0.43980
C4573       C  0.24959861  0.05749259  0.94258316    -0.05090
C4574       C  0.26585675  0.05429281  0.95326582    -0.32520
C4575       C  0.26655803  0.04031563  0.96689977     0.36730
C4576       C  0.25029560  0.02999844  0.97126054    -0.05450
C4577       C  0.23393937  0.03351868  0.96079562    -0.32420
C4578       C  0.23376538  0.04628007  0.94609284     0.36640
H4579       H  0.27832969  0.06250886  0.95106848     0.17010
O4580       O  0.28353716  0.03615854  0.97493427    -0.59910
H4581       H  0.22105860  0.02621661  0.96371237     0.17020
O4582       O  0.21811464  0.04713583  0.93497513    -0.60010
H4583       H  0.22099511  0.03909793  0.92401795     0.44020
H4584       H  0.28706066  0.04739064  0.98230549     0.43980
C4585       C  0.15281651  0.90297194  0.03589276    -0.05090
C4586       C  0.13390244  0.89827953  0.03875144    -0.32520
C4587       C  0.12741654  0.89322213  0.05653869     0.36730
C4588       C  0.13971523  0.89330904  0.07190872    -0.05450
C4589       C  0.15858062  0.89748750  0.06914694    -0.32420
C4590       C  0.16528200  0.90197007  0.05132843     0.36640
H4591       H  0.12400626  0.89883950  0.02726973     0.17010
O4592       O  0.10905357  0.88819016  0.05876066    -0.59910
H4593       H  0.16830091  0.89676597  0.08079365     0.17020
O4594       O  0.18420789  0.90425202  0.04895378    -0.60010
H4595       H  0.18766530  0.91529350  0.05664019     0.44020
H4596       H  0.10246027  0.89983630  0.06249736     0.43980
C4597       C  0.15076649  0.90220747  0.96480171    -0.05090
C4598       C  0.14400230  0.91505513  0.95154681    -0.32520
C4599       C  0.13924822  0.90928092  0.93347926     0.36730
C4600       C  0.14147962  0.89047238  0.92825596    -0.05450
C4601       C  0.14790690  0.87746487  0.94145049    -0.32420
C4602       C  0.15248600  0.88321668  0.95969863     0.36640
H4603       H  0.14266487  0.92972219  0.95516671     0.17010
O4604       O  0.13310376  0.92225968  0.92075357    -0.59910
H4605       H  0.14928057  0.86285735  0.93762187     0.17020
O4606       O  0.15904612  0.87029106  0.97224933    -0.60010
H4607       H  0.17286041  0.87054555  0.97096674     0.44020
H4608       H  0.11930786  0.92266512  0.92221590     0.43980
C4609       C  0.22194683  0.97271200  0.99895361    -0.05090
C4610       C  0.22243229  0.95814303  0.98588295    -0.32520
C4611       C  0.20846635  0.94451686  0.98576808     0.36730
C4612       C  0.19335490  0.94576398  0.99848224    -0.05450
C4613       C  0.19282655  0.96070908  0.01129119    -0.32420
C4614       C  0.20706534  0.97399145  0.01169416     0.36640
H4615       H  0.23391646  0.95709958  0.97605843     0.17010
O4616       O  0.21006258  0.92979958  0.97352632    -0.59910
H4617       H  0.18131723  0.96216502  0.02102249     0.17020
O4618       O  0.20634540  0.98820722  0.02460244    -0.60010
H4619       H  0.20005890  0.99872814  0.01809174     0.44020
H4620       H  0.21627095  0.91970569  0.98074598     0.43980
C4621       C  0.32102452  0.86272685  0.14059862    -0.05090
C4622       C  0.31708784  0.86016923  0.15961556    -0.32520
C4623       C  0.29937977  0.85424522  0.16545192     0.36730
C4624       C  0.28513762  0.85071139  0.15216697    -0.05450
C4625       C  0.28885232  0.85392538  0.13319736    -0.32420
C4626       C  0.30653745  0.85995130  0.12737264     0.36640
H4627       H  0.32782342  0.86259191  0.17006613     0.17010
O4628       O  0.29592471  0.85251852  0.18424231    -0.59910
H4629       H  0.27814863  0.85129768  0.12276426     0.17020
O4630       O  0.30957315  0.86259667  0.10864221    -0.60010
H4631       H  0.30610806  0.87582254  0.10628911     0.44020
H4632       H  0.30365929  0.84177466  0.18846543     0.43980
C4633       C  0.38730632  0.82292319  0.10622771    -0.05090
C4634       C  0.39008224  0.80905959  0.11988834    -0.32520
C4635       C  0.39577748  0.79091331  0.11496893     0.36730
C4636       C  0.39879106  0.78626280  0.09604256    -0.05450
C4637       C  0.39527993  0.79995500  0.08234879    -0.32420
C4638       C  0.38983349  0.81813442  0.08728271     0.36640
H4639       H  0.38829837  0.81238229  0.13456961     0.17010
O4640       O  0.39962798  0.77829231  0.12886916    -0.59910
H4641       H  0.39720102  0.79667704  0.06767392     0.17020
O4642       O  0.38730565  0.83112607  0.07343762    -0.60010
H4643       H  0.39986896  0.83657494  0.07133952     0.44020
H4644       H  0.38724685  0.77432823  0.13364937     0.43980
C4645       C  0.36099828  0.93005974  0.10706085    -0.05090
C4646       C  0.35204305  0.94174853  0.12019371    -0.32520
C4647       C  0.34623470  0.95982424  0.11539209     0.36730
C4648       C  0.34953347  0.96661952  0.09730682    -0.05450
C4649       C  0.35871988  0.95514402  0.08423236    -0.32420
C4650       C  0.36457590  0.93704564  0.08902128     0.36640
H4651       H  0.34908766  0.93670955  0.13414228     0.17010
O4652       O  0.33680630  0.97051994  0.12827388    -0.59910
H4653       H  0.36119620  0.96020970  0.07019518     0.17020
O4654       O  0.37362689  0.92631258  0.07591706    -0.60010
H4655       H  0.38713738  0.92879771  0.07790147     0.44020
H4656       H  0.32336197  0.96785115  0.12608045     0.43980
C4657       C  0.42686526  0.89054544  0.14255142    -0.05090
C4658       C  0.42927708  0.90887374  0.14883446    -0.32520
C4659       C  0.44706732  0.91551946  0.15360936     0.36730
C4660       C  0.46284664  0.90344116  0.15286539    -0.05450
C4661       C  0.46031427  0.88506032  0.14624089    -0.32420
C4662       C  0.44252997  0.87870599  0.14084177     0.36640
H4663       H  0.41738508  0.91832427  0.14938764     0.17010
O4664       O  0.44905259  0.93416408  0.15777730    -0.59910
H4665       H  0.47207791  0.87549780  0.14543536     0.17020
O4666       O  0.44059216  0.86091908  0.13390928    -0.60010
H4667       H  0.43740136  0.85312093  0.14487505     0.44020
H4668       H  0.44179441  0.93630519  0.16940827     0.43980
C4669       C  0.28517584  0.65349318  0.84730731    -0.05090
C4670       C  0.28776193  0.64760609  0.86591171    -0.32520
C4671       C  0.30554316  0.64235872  0.87248262     0.36730
C4672       C  0.32114256  0.64347606  0.86061380    -0.05450
C4673       C  0.31866525  0.64896083  0.84204991    -0.32420
C4674       C  0.30086770  0.65360526  0.83521926     0.36640
H4675       H  0.27604807  0.64730246  0.87548387     0.17010
O4676       O  0.30754312  0.63615320  0.89050524    -0.59910
H4677       H  0.33050948  0.64902761  0.83260309     0.17020
O4678       O  0.29877570  0.65707261  0.81644734    -0.60010
H4679       H  0.30613052  0.66852435  0.81393336     0.44020
H4680       H  0.31081706  0.64740808  0.89793450     0.43980
C4681       C  0.17823189  0.63844318  0.85790634    -0.05090
C4682       C  0.18243204  0.63924276  0.83876073    -0.32520
C4683       C  0.20026357  0.64444992  0.83266832     0.36730
C4684       C  0.21430850  0.64914305  0.84576802    -0.05450
C4685       C  0.21042150  0.64752206  0.86489184    -0.32420
C4686       C  0.19257066  0.64233161  0.87101883     0.36640
H4687       H  0.17177965  0.63609740  0.82842106     0.17010
O4688       O  0.20370472  0.64529796  0.81382789    -0.59910
H4689       H  0.22101175  0.65111708  0.87515304     0.17020
O4690       O  0.18927197  0.64144369  0.88987906    -0.60010
H4691       H  0.18570203  0.65433940  0.89360684     0.44020
H4692       H  0.20980811  0.63322369  0.81066816     0.43980
C4693       C  0.34549902  0.71480288  0.65046964    -0.05090
C4694       C  0.36430768  0.71148141  0.64584276    -0.32520
C4695       C  0.37020014  0.69395633  0.63927335     0.36730
C4696       C  0.35729906  0.67910389  0.63759214    -0.05450
C4697       C  0.33837909  0.68260648  0.64147474    -0.32420
C4698       C  0.33240292  0.70025381  0.64761018     0.36640
H4699       H  0.37464950  0.72234555  0.64778708     0.17010
O4700       O  0.38874521  0.69144706  0.63499218    -0.59910
H4701       H  0.32815166  0.67156152  0.63996507     0.17020
O4702       O  0.31367552  0.70304155  0.65082754    -0.60010
H4703       H  0.30882522  0.70918413  0.63937882     0.44020
H4704       H  0.38970546  0.69428206  0.62146113     0.43980
C4705       C  0.34888520  0.78561236  0.65406696    -0.05090
C4706       C  0.35319422  0.79922584  0.66766828    -0.32520
C4707       C  0.35911512  0.81713082  0.66258737     0.36730
C4708       C  0.36100301  0.82177532  0.64356912    -0.05450
C4709       C  0.35724454  0.80800730  0.62996994    -0.32420
C4710       C  0.35110293  0.79016329  0.63504507     0.36640
H4711       H  0.35175464  0.79603591  0.68239375     0.17010
O4712       O  0.36247130  0.83008767  0.67635550    -0.59910
H4713       H  0.35855309  0.81121271  0.61523727     0.17020
O4714       O  0.34663375  0.77758735  0.62123834    -0.60010
H4715       H  0.33303346  0.77933000  0.61899276     0.44020
H4716       H  0.37584415  0.82840476  0.67973144     0.43980
C4717       C  0.14843261  0.84902070  0.71513420    -0.05090
C4718       C  0.13906229  0.83642359  0.70332569    -0.32520
C4719       C  0.13364233  0.84167780  0.68526499     0.36730
C4720       C  0.13780188  0.85972405  0.67867188    -0.05450
C4721       C  0.14681349  0.87244589  0.69069713    -0.32420
C4722       C  0.15223617  0.86716458  0.70874493     0.36640
H4723       H  0.13616574  0.82236443  0.70807777     0.17010
O4724       O  0.12445100  0.82900291  0.67416818    -0.59910
H4725       H  0.15018516  0.88638218  0.68591415     0.17020
O4726       O  0.16190030  0.87957585  0.71975064    -0.60010
H4727       H  0.17530942  0.87704441  0.71715770     0.44020
H4728       H  0.11094868  0.83140224  0.67636840     0.43980
C4729       C  0.15251002  0.85221927  0.78564782    -0.05090
C4730       C  0.16610214  0.85570173  0.79949281    -0.32520
C4731       C  0.16096082  0.86071582  0.81771490     0.36730
C4732       C  0.14190211  0.86268575  0.82237719    -0.05450
C4733       C  0.12833301  0.85979787  0.80838409    -0.32420
C4734       C  0.13346948  0.85461729  0.79019128     0.36640
H4735       H  0.18083896  0.85412547  0.79627652     0.17010
O4736       O  0.17471444  0.86340456  0.83085565    -0.59910
H4737       H  0.11358020  0.86115400  0.81161408     0.17020
O4738       O  0.11971509  0.85065475  0.77736942    -0.60010
H4739       H  0.11463062  0.86296930  0.77347902     0.44020
H4740       H  0.17718703  0.85084758  0.83618236     0.43980
C4741       C  0.27782986  0.75141817  0.72355706    -0.05090
C4742       C  0.27657870  0.73857512  0.70882829    -0.32520
C4743       C  0.29011473  0.73820614  0.69478451     0.36730
C4744       C  0.30556127  0.75046617  0.69568631    -0.05450
C4745       C  0.30675001  0.76327017  0.71063005    -0.32420
C4746       C  0.29292686  0.76387987  0.72442235     0.36640
H4747       H  0.26481258  0.72908907  0.70801256     0.17010
O4748       O  0.28779893  0.72613850  0.68002068    -0.59910
H4749       H  0.31847135  0.77277402  0.71169090     0.17020
O4750       O  0.29420553  0.77674774  0.73862703    -0.60010
H4751       H  0.30077533  0.77015906  0.74892462     0.44020
H4752       H  0.28173177  0.73366585  0.67006769     0.43980
C4753       C  0.21995173  0.78003094  0.74953460    -0.05090
C4754       C  0.20162202  0.77517032  0.74450908    -0.32520
C4755       C  0.18747326  0.78872128  0.74428966     0.36730
C4756       C  0.19158328  0.80717996  0.74964502    -0.05450
C4757       C  0.20989045  0.81198842  0.75478643    -0.32420
C4758       C  0.22412410  0.79856116  0.75452907     0.36640
H4759       H  0.19833554  0.76087323  0.74072143     0.17010
O4760       O  0.16956986  0.78371301  0.73951564    -0.59910
H4761       H  0.21313204  0.82620838  0.75889855     0.17020
O4762       O  0.24190486  0.80346102  0.75985146    -0.60010
H4763       H  0.24792276  0.80818449  0.74832587     0.44020
H4764       H  0.16912561  0.78437737  0.72567187     0.43980
C4765       C  0.24741430  0.72384112  0.77929800    -0.05090
C4766       C  0.25771842  0.72679948  0.79570327    -0.32520
C4767       C  0.25756561  0.71354325  0.80999484     0.36730
C4768       C  0.24724533  0.69690481  0.80775949    -0.05450
C4769       C  0.23667550  0.69420739  0.79136290    -0.32420
C4770       C  0.23670872  0.70757765  0.77718816     0.36640
H4771       H  0.26580943  0.73947088  0.79743917     0.17010
O4772       O  0.26744898  0.71703840  0.82609195    -0.59910
H4773       H  0.22872148  0.68149363  0.78934340     0.17020
O4774       O  0.22628950  0.70465057  0.76131480    -0.60010
H4775       H  0.23492551  0.69840587  0.75240961     0.44020
H4776       H  0.25821077  0.72249195  0.83490572     0.43980
C4777       C  0.34791421  0.28770819  0.15253918    -0.05090
C4778       C  0.33561965  0.30318032  0.15358715    -0.32520
C4779       C  0.34157853  0.32119581  0.14915684     0.36730
C4780       C  0.35988084  0.32407046  0.14284583    -0.05450
C4781       C  0.37209076  0.30878846  0.14104362    -0.32420
C4782       C  0.36641301  0.29077429  0.14622665     0.36640
H4783       H  0.32119780  0.30139004  0.15780711     0.17010
O4784       O  0.32928928  0.33590415  0.15077642    -0.59910
H4785       H  0.38621569  0.31091469  0.13600759     0.17020
O4786       O  0.37923856  0.27648643  0.14547454    -0.60010
H4787       H  0.38458525  0.27570840  0.15826079     0.44020
H4788       H  0.32348829  0.33722859  0.13823181     0.43980
C4789       C  0.34610742  0.21687414  0.14830343    -0.05090
C4790       C  0.33376088  0.20563129  0.13796091    -0.32520
C4791       C  0.33895364  0.18749379  0.13247045     0.36730
C4792       C  0.35662061  0.18025751  0.13761681    -0.05450
C4793       C  0.36905084  0.19174414  0.14767313    -0.32420
C4794       C  0.36385254  0.20983212  0.15312106     0.36640
H4795       H  0.31994648  0.21085185  0.13440555     0.17010
O4796       O  0.32659224  0.17695760  0.12225529    -0.59910
H4797       H  0.38269721  0.18651443  0.15181062     0.17020
O4798       O  0.37594529  0.22028618  0.16375796    -0.60010
H4799       H  0.37268439  0.21744133  0.17691663     0.44020
H4800       H  0.32983958  0.17931900  0.10899747     0.43980
C4801       C  0.30667742  0.25074595  0.19413507    -0.05090
C4802       C  0.31183578  0.24795723  0.21280389    -0.32520
C4803       C  0.29830150  0.24831403  0.22689525     0.36730
C4804       C  0.27925871  0.25117717  0.22226767    -0.05450
C4805       C  0.27425219  0.25396453  0.20345439    -0.32420
C4806       C  0.28782977  0.25382398  0.18945911     0.36640
H4807       H  0.32641516  0.24579265  0.21645811     0.17010
O4808       O  0.30390305  0.24622887  0.24513180    -0.59910
H4809       H  0.25973585  0.25607623  0.19954736     0.17020
O4810       O  0.28261682  0.25695963  0.17125768    -0.60010
H4811       H  0.28054218  0.24436849  0.16581291     0.44020
H4812       H  0.30532027  0.25912930  0.25003547     0.43980
C4813       C  0.15313066  0.35176981  0.28438854    -0.05090
C4814       C  0.16669287  0.35520744  0.29827888    -0.32520
C4815       C  0.16154792  0.36054488  0.31640547     0.36730
C4816       C  0.14249152  0.36262747  0.32103506    -0.05450
C4817       C  0.12894635  0.35987663  0.30696832    -0.32420
C4818       C  0.13411325  0.35452745  0.28879976     0.36640
H4819       H  0.18142335  0.35337034  0.29516120     0.17010
O4820       O  0.17528940  0.36306357  0.32959152    -0.59910
H4821       H  0.11419937  0.36142086  0.31014080     0.17020
O4822       O  0.12040075  0.35074345  0.27588440    -0.60010
H4823       H  0.11586964  0.36313249  0.27158685     0.44020
H4824       H  0.17891361  0.37638282  0.32854075     0.43980
C4825       C  0.15192807  0.34896538  0.21334499    -0.05090
C4826       C  0.13281777  0.35233674  0.20991753    -0.32520
C4827       C  0.12653363  0.35718850  0.19195557     0.36730
C4828       C  0.13938025  0.35856784  0.17717074    -0.05450
C4829       C  0.15844803  0.35584875  0.18062913    -0.32420
C4830       C  0.16481645  0.35118448  0.19853988     0.36640
H4831       H  0.12270888  0.35080168  0.22106615     0.17010
O4832       O  0.10786989  0.36068396  0.18900355    -0.59910
H4833       H  0.16848640  0.35759181  0.16943354     0.17020
O4834       O  0.18373724  0.34962217  0.20166561    -0.60010
H4835       H  0.18788211  0.33853974  0.19436942     0.44020
H4836       H  0.10253557  0.34857315  0.18488121     0.43980
C4837       C  0.19254738  0.30617675  0.24966576    -0.05090
C4838       C  0.18768214  0.28726503  0.24998317    -0.32520
C4839       C  0.20160275  0.27348653  0.24968021     0.36730
C4840       C  0.22063282  0.27866275  0.24914437    -0.05450
C4841       C  0.22538955  0.29765994  0.24860955    -0.32420
C4842       C  0.21146067  0.31139402  0.24894718     0.36640
H4843       H  0.17308669  0.28322080  0.25035078     0.17010
O4844       O  0.19648098  0.25502934  0.24972242    -0.59910
H4845       H  0.23994323  0.30184622  0.24823398     0.17020
O4846       O  0.21640314  0.32988724  0.24831872    -0.60010
H4847       H  0.21729772  0.33390918  0.26157586     0.44020
H4848       H  0.19638085  0.25119867  0.23638143     0.43980
C4849       C  0.28520937  0.15137040  0.34693787    -0.05090
C4850       C  0.28888372  0.14994449  0.36620124    -0.32520
C4851       C  0.30687086  0.14531945  0.37264903     0.36730
C4852       C  0.32135227  0.14203055  0.35977771    -0.05450
C4853       C  0.31760786  0.14282200  0.34059350    -0.32420
C4854       C  0.29969410  0.14735335  0.33411300     0.36640
H4855       H  0.27794458  0.15296289  0.37624719     0.17010
O4856       O  0.31013766  0.14389236  0.39149695    -0.59910
H4857       H  0.32862423  0.13985134  0.33060425     0.17020
O4858       O  0.29650893  0.14791207  0.31519546    -0.60010
H4859       H  0.29122538  0.13551202  0.31198116     0.44020
H4860       H  0.31450313  0.15644503  0.39543822     0.43980
C4861       C  0.17773836  0.13933662  0.35635758    -0.05090
C4862       C  0.19226230  0.14014389  0.36966957    -0.32520
C4863       C  0.21034502  0.14579099  0.36468746     0.36730
C4864       C  0.21424418  0.15074155  0.34604770    -0.05450
C4865       C  0.19984273  0.14926829  0.33262894    -0.32420
C4866       C  0.18173536  0.14390136  0.33765950     0.36640
H4867       H  0.18953039  0.13680618  0.38417072     0.17010
O4868       O  0.22369450  0.14763381  0.37838860    -0.59910
H4869       H  0.20252343  0.15267520  0.31813329     0.17020
O4870       O  0.16803717  0.14348203  0.32419075    -0.60010
H4871       H  0.16282138  0.15635170  0.32388469     0.44020
H4872       H  0.22740385  0.13468072  0.38169872     0.43980
C4873       C  0.24983203  0.22311272  0.27869766    -0.05090
C4874       C  0.26234741  0.22460403  0.29370331    -0.32520
C4875       C  0.26211337  0.21148024  0.30811549     0.36730
C4876       C  0.24956039  0.19629464  0.30728982    -0.05450
C4877       C  0.23698986  0.19498752  0.29217397    -0.32420
C4878       C  0.23699364  0.20834757  0.27801566     0.36640
H4879       H  0.27208263  0.23616615  0.29437955     0.17010
O4880       O  0.27400194  0.21380662  0.32302699    -0.59910
H4881       H  0.22733622  0.18338962  0.29114335     0.17020
O4882       O  0.22445074  0.20686240  0.26353204    -0.60010
H4883       H  0.23116089  0.19980181  0.25363163     0.44020
H4884       H  0.26649534  0.22042823  0.33265290     0.43980
C4885       C  0.57052089  0.11213838  0.85837796    -0.05090
C4886       C  0.56466454  0.11442086  0.83978944    -0.32520
C4887       C  0.54668122  0.10914285  0.83419261     0.36730
C4888       C  0.53422262  0.10124928  0.84719581    -0.05450
C4889       C  0.53979303  0.09946577  0.86589903    -0.32420
C4890       C  0.55782622  0.10471798  0.87153013     0.36640
H4891       H  0.57408813  0.12022283  0.82950257     0.17010
O4892       O  0.54149359  0.11145370  0.81585771    -0.59910
H4893       H  0.53040863  0.09328464  0.87600068     0.17020
O4894       O  0.56301925  0.10202367  0.88980659    -0.60010
H4895       H  0.56855525  0.08928889  0.89016421     0.44020
H4896       H  0.53449694  0.12345164  0.81555151     0.43980
C4897       C  0.61186783  0.17916636  0.89107764    -0.05090
C4898       C  0.60838052  0.18309390  0.90996517    -0.32520
C4899       C  0.60214724  0.20082590  0.91566282     0.36730
C4900       C  0.59922339  0.21515127  0.90236284    -0.05450
C4901       C  0.60345957  0.21145509  0.88355592    -0.32420
C4902       C  0.60979770  0.19373494  0.87788219     0.36640
H4903       H  0.61022204  0.17230204  0.92040892     0.17010
O4904       O  0.59951719  0.20420551  0.93438379    -0.59910
H4905       H  0.60140579  0.22220130  0.87310532     0.17020
O4906       O  0.61349461  0.19076400  0.85929720    -0.60010
H4907       H  0.62698137  0.19362955  0.85781805     0.44020
H4908       H  0.58868523  0.19641054  0.93805365     0.43980
C4909       C  0.85743154  0.68062463  0.13736903    -0.05090
C4910       C  0.83828094  0.68492937  0.13819246    -0.32520
C4911       C  0.83212971  0.70266114  0.14393416     0.36730
C4912       C  0.84523360  0.71650994  0.14909670    -0.05450
C4913       C  0.86439407  0.71245853  0.14749283    -0.32420
C4914       C  0.87053650  0.69479151  0.14158196     0.36640
H4915       H  0.82796209  0.67445454  0.13458670     0.17010
O4916       O  0.81327942  0.70651056  0.14397874    -0.59910
H4917       H  0.87470220  0.72283321  0.15140730     0.17020
O4918       O  0.88941925  0.69140660  0.14061410    -0.60010
H4919       H  0.89304978  0.69501167  0.12774828     0.44020
H4920       H  0.80789811  0.69860108  0.15396836     0.43980
C4921       C  0.85690245  0.57363360  0.11270086    -0.05090
C4922       C  0.87059448  0.55983807  0.10924352    -0.32520
C4923       C  0.86560592  0.54178267  0.10353561     0.36730
C4924       C  0.84659143  0.53706183  0.10145967    -0.05450
C4925       C  0.83289869  0.55070114  0.10549946    -0.32420
C4926       C  0.83788904  0.56881588  0.11097604     0.36640
H4927       H  0.88532837  0.56316548  0.11046722     0.17010
O4928       O  0.87947612  0.52915637  0.09931164    -0.59910
H4929       H  0.81817426  0.54738054  0.10412005     0.17020
O4930       O  0.82404218  0.58180768  0.11397699    -0.60010
H4931       H  0.82061349  0.58044548  0.12732906     0.44020
H4932       H  0.88163140  0.53053123  0.08569215     0.43980
C4933       C  0.89345416  0.61279306  0.17746057    -0.05090
C4934       C  0.89988358  0.59447948  0.17967165    -0.32520
C4935       C  0.90455893  0.58760772  0.19738319     0.36730
C4936       C  0.90360111  0.59945167  0.21329673    -0.05450
C4937       C  0.89687705  0.61783581  0.21096314    -0.32420
C4938       C  0.89154790  0.62440587  0.19324738     0.36640
H4939       H  0.90059642  0.58519659  0.16767551     0.17010
O4940       O  0.90880816  0.56895324  0.19914728    -0.59910
H4941       H  0.89590636  0.62722397  0.22283424     0.17020
O4942       O  0.88450812  0.64218070  0.19149586    -0.60010
H4943       H  0.89544928  0.65007648  0.18844198     0.44020
H4944       H  0.92056595  0.56698611  0.19203465     0.43980
C4945       C  0.90246764  0.65065372  0.03493279    -0.05090
C4946       C  0.91609369  0.64887460  0.04911234    -0.32520
C4947       C  0.91122747  0.64373097  0.06731097     0.36730
C4948       C  0.89247846  0.63965172  0.07162858    -0.05450
C4949       C  0.87893697  0.64073861  0.05733339    -0.32420
C4950       C  0.88375776  0.64619819  0.03915870     0.36640
H4951       H  0.93063908  0.65191007  0.04618916     0.17010
O4952       O  0.92491540  0.64305385  0.08078115    -0.59910
H4953       H  0.86439326  0.63776075  0.06031475     0.17020
O4954       O  0.86986660  0.64835461  0.02605357    -0.60010
H4955       H  0.86615141  0.63548064  0.02247979     0.44020
H4956       H  0.92555072  0.65591887  0.08596014     0.43980
C4957       C  0.85748662  0.13962994  0.17715348    -0.05090
C4958       C  0.87109752  0.14185444  0.19124961    -0.32520
C4959       C  0.86608989  0.14716173  0.20948940     0.36730
C4960       C  0.84712030  0.15029097  0.21397979    -0.05450
C4961       C  0.83350909  0.14736167  0.19998475    -0.32420
C4962       C  0.83853122  0.14242910  0.18173432     0.36640
H4963       H  0.88578935  0.13984555  0.18806943     0.17010
O4964       O  0.87994412  0.15041778  0.22239708    -0.59910
H4965       H  0.81879155  0.14929898  0.20308698     0.17020
O4966       O  0.82473872  0.14062919  0.16847862    -0.60010
H4967       H  0.82303732  0.15334445  0.16323167     0.44020
H4968       H  0.88469876  0.13787411  0.22596240     0.43980
C4969       C  0.89158927  0.17942013  0.11112075    -0.05090
C4970       C  0.91066517  0.18386766  0.11023806    -0.32520
C4971       C  0.91648443  0.20163055  0.10452127     0.36730
C4972       C  0.90312118  0.21537045  0.09955843    -0.05450
C4973       C  0.88404850  0.21117738  0.10117209    -0.32420
C4974       C  0.87822785  0.19346019  0.10695478     0.36640
H4975       H  0.92116999  0.17348147  0.11374874     0.17010
O4976       O  0.93526542  0.20562185  0.10428918    -0.59910
H4977       H  0.87357312  0.22149778  0.09738761     0.17020
O4978       O  0.85940284  0.18992255  0.10791140    -0.60010
H4979       H  0.85571885  0.19349672  0.12080399     0.44020
H4980       H  0.94059909  0.19794079  0.09401056     0.43980
C4981       C  0.90030321  0.03634356  0.14998137    -0.05090
C4982       C  0.90796473  0.04375426  0.13356175    -0.32520
C4983       C  0.90336226  0.06192708  0.12779917     0.36730
C4984       C  0.89083781  0.07280987  0.13845067    -0.05450
C4985       C  0.88285400  0.06517791  0.15462506    -0.32420
C4986       C  0.88778569  0.04720993  0.16060295     0.36640
H4987       H  0.91784640  0.03557065  0.12544713     0.17010
O4988       O  0.91103993  0.06884962  0.11170557    -0.59910
H4989       H  0.87313775  0.07338040  0.16292484     0.17020
O4990       O  0.88040838  0.04039709  0.17689166    -0.60010
H4991       H  0.88905546  0.04465097  0.18689772     0.44020
H4992       H  0.90179137  0.06602179  0.10173003     0.43980
C4993       C  0.78532549  0.90360465  0.09786315    -0.05090
C4994       C  0.78802022  0.88520381  0.10428859    -0.32520
C4995       C  0.80589165  0.87881251  0.10952133     0.36730
C4996       C  0.82145650  0.89065483  0.10786632    -0.05450
C4997       C  0.81884332  0.90905048  0.10193932    -0.32420
C4998       C  0.80097801  0.91571591  0.09731418     0.36640
H4999       H  0.77633727  0.87563813  0.10497468     0.17010
O5000       O  0.80801972  0.86097678  0.11618905    -0.59910
H5001       H  0.83065179  0.91850404  0.10145979     0.17020
O5002       O  0.79879314  0.93438034  0.09337346    -0.60010
H5003       H  0.80612149  0.93663249  0.08183454     0.44020
H5004       H  0.81115485  0.85324731  0.10508559     0.43980
C5005       C  0.71419756  0.90578671  0.10188220    -0.05090
C5006       C  0.71039858  0.88680526  0.10474500    -0.32520
C5007       C  0.69257212  0.88094637  0.11030021     0.36730
C5008       C  0.67803242  0.89416312  0.11300468    -0.05450
C5009       C  0.68214223  0.91322303  0.11114974    -0.32420
C5010       C  0.69999846  0.91908488  0.10562158     0.36640
H5011       H  0.72108330  0.87637920  0.10193861     0.17010
O5012       O  0.68942010  0.86217766  0.11240109    -0.59910
H5013       H  0.67138083  0.92365927  0.11358820     0.17020
O5014       O  0.70357460  0.93786987  0.10419754    -0.60010
H5015       H  0.69581295  0.94236544  0.09358768     0.44020
H5016       H  0.69232685  0.85952552  0.12570212     0.43980
C5017       C  0.65117935  0.96462376  0.90107574    -0.05090
C5018       C  0.64781605  0.96129691  0.88194527    -0.32520
C5019       C  0.64279282  0.94340018  0.87552983     0.36730
C5020       C  0.64136250  0.92850479  0.88822278    -0.05450
C5021       C  0.64413058  0.93183118  0.90727032    -0.32420
C5022       C  0.64881644  0.94967107  0.91380142     0.36640
H5023       H  0.64939153  0.97247452  0.87190689     0.17010
O5024       O  0.63904395  0.94066250  0.85690766    -0.59910
H5025       H  0.64229001  0.92058773  0.91721562     0.17020
O5026       O  0.65009629  0.95258588  0.93276000    -0.60010
H5027       H  0.66086768  0.94489830  0.93705044     0.44020
H5028       H  0.65108794  0.93655100  0.85135961     0.43980
C5029       C  0.65070435  0.03615460  0.90118990    -0.05090
C5030       C  0.63186294  0.03922342  0.89618301    -0.32520
C5031       C  0.62559321  0.05708761  0.89085011     0.36730
C5032       C  0.63806597  0.07225003  0.89097326    -0.05450
C5033       C  0.65687161  0.06919720  0.89534555    -0.32420
C5034       C  0.66334887  0.05134191  0.90005169     0.36640
H5035       H  0.62189112  0.02788548  0.89674887     0.17010
O5036       O  0.60727253  0.05960800  0.88562314    -0.59910
H5037       H  0.66672931  0.08065331  0.89462321     0.17020
O5038       O  0.68225064  0.04866417  0.90252954    -0.60010
H5039       H  0.68577692  0.05639897  0.91352518     0.44020
H5040       H  0.60071142  0.06364380  0.89716225     0.43980
C5041       C  0.84718324  0.09856598  0.03501635    -0.05090
C5042       C  0.84923659  0.11780478  0.03857586    -0.32520
C5043       C  0.85410565  0.12424400  0.05653210     0.36730
C5044       C  0.85685109  0.11141154  0.07115622    -0.05450
C5045       C  0.85540985  0.09228838  0.06754479    -0.32420
C5046       C  0.85070267  0.08578345  0.04969310     0.36640
H5047       H  0.84671785  0.12785383  0.02754871     0.17010
O5048       O  0.85645052  0.14302361  0.05958368    -0.59910
H5049       H  0.85819053  0.08230300  0.07859056     0.17020
O5050       O  0.85039651  0.06684633  0.04648277    -0.60010
H5051       H  0.83977218  0.06200961  0.05392361     0.44020
H5052       H  0.84412040  0.14760830  0.06403662     0.43980
C5053       C  0.77838557  0.02810005  0.99898639    -0.05090
C5054       C  0.79729289  0.02277219  0.00035635    -0.32520
C5055       C  0.81137777  0.03626221  0.00048849     0.36730
C5056       C  0.80658161  0.05526466  0.99933457    -0.05450
C5057       C  0.78779479  0.06067377  0.99806890    -0.32420
C5058       C  0.77368922  0.04725384  0.99800076     0.36640
H5059       H  0.80114210  0.00813137  0.00114571     0.17010
O5060       O  0.82974741  0.03081500  0.00201776    -0.59910
H5061       H  0.78408582  0.07535661  0.99727016     0.17020
O5062       O  0.75536274  0.05302253  0.99729002    -0.60010
H5063       H  0.75121900  0.05357457  0.01050549     0.44020
H5064       H  0.83423582  0.02950984  0.98896608     0.43980
C5065       C  0.69267699  0.00070708  0.94384821    -0.05090
C5066       C  0.68952267  0.01035920  0.96069990    -0.32520
C5067       C  0.70324342  0.01067759  0.97464393     0.36730
C5068       C  0.72032276  0.00137958  0.97171714    -0.05450
C5069       C  0.72362039  0.99190039  0.95490532    -0.32420
C5070       C  0.70996204  0.99158092  0.94093858     0.36640
H5071       H  0.67632969  0.01748625  0.96311003     0.17010
O5072       O  0.69999345  0.02029741  0.99094717    -0.59910
H5073       H  0.73684928  0.98478807  0.95262043     0.17020
O5074       O  0.71373657  0.98254201  0.92441761    -0.60010
H5075       H  0.71846326  0.99237154  0.91592596     0.44020
H5076       H  0.69451206  0.01100681  0.99958806     0.43980
C5077       C  0.74823709  0.94312534  0.05464877    -0.05090
C5078       C  0.75409275  0.96111173  0.05960178    -0.32520
C5079       C  0.75411066  0.97544789  0.04644195     0.36730
C5080       C  0.74881088  0.97170075  0.02776156    -0.05450
C5081       C  0.74296606  0.95352798  0.02290673    -0.32420
C5082       C  0.74248301  0.93934007  0.03627610     0.36640
H5083       H  0.75836163  0.96409939  0.07385716     0.17010
O5084       O  0.75892630  0.99310959  0.05215274    -0.59910
H5085       H  0.73893228  0.95022824  0.00866708     0.17020
O5086       O  0.73641907  0.92185344  0.03128438    -0.60010
H5087       H  0.74786840  0.91493035  0.02752618     0.44020
H5088       H  0.74689859  0.99946096  0.05500635     0.43980
C5089       C  0.86096304  0.10749312  0.92768299    -0.05090
C5090       C  0.84221561  0.10286179  0.93038335    -0.32520
C5091       C  0.83561640  0.09813876  0.94814099     0.36730
C5092       C  0.84808136  0.09730575  0.96358817    -0.05450
C5093       C  0.86688414  0.10241284  0.96083406    -0.32420
C5094       C  0.87327002  0.10772332  0.94306771     0.36640
H5095       H  0.83246968  0.10349950  0.91875099     0.17010
O5096       O  0.81673687  0.09545141  0.95047486    -0.59910
H5097       H  0.87672594  0.10202655  0.97237048     0.17020
O5098       O  0.89152101  0.11314805  0.94087954    -0.60010
H5099       H  0.89834048  0.10167134  0.93702246     0.44020
H5100       H  0.81355429  0.08427962  0.94285993     0.43980
C5101       C  0.88800132  0.10972008  0.82163529    -0.05090
C5102       C  0.88822908  0.09066594  0.81689035    -0.32520
C5103       C  0.89354944  0.08474147  0.79898735     0.36730
C5104       C  0.89900692  0.09790424  0.78540536    -0.05450
C5105       C  0.89816738  0.11698458  0.78988556    -0.32420
C5106       C  0.89282702  0.12294223  0.80781002     0.36640
H5107       H  0.88438832  0.08025287  0.82713495     0.17010
O5108       O  0.89351809  0.06598088  0.79495958    -0.59910
H5109       H  0.90232339  0.12730222  0.77966443     0.17020
O5110       O  0.89264796  0.14173251  0.81167210    -0.60010
H5111       H  0.90556364  0.14467815  0.81583000     0.44020
H5112       H  0.88133950  0.06365440  0.78870295     0.43980
C5113       C  0.92852909  0.14280514  0.88815769    -0.05090
C5114       C  0.93302685  0.16183951  0.88932628    -0.32520
C5115       C  0.95083949  0.16757070  0.89516725     0.36730
C5116       C  0.96460623  0.15416680  0.89988190    -0.05450
C5117       C  0.96039096  0.13514059  0.89797027    -0.32420
C5118       C  0.94254134  0.12939655  0.89227190     0.36640
H5119       H  0.92263894  0.17238345  0.88594214     0.17010
O5120       O  0.95486335  0.18631206  0.89573267    -0.59910
H5121       H  0.97078809  0.12465283  0.90150988     0.17020
O5122       O  0.93897902  0.11061632  0.89091161    -0.60010
H5123       H  0.93523332  0.10675489  0.90366857     0.44020
H5124       H  0.94740945  0.19147827  0.90624857     0.43980
C5125       C  0.84560034  0.21501010  0.64897780    -0.05090
C5126       C  0.83201879  0.20148870  0.64446884    -0.32520
C5127       C  0.83715426  0.18335525  0.63900696     0.36730
C5128       C  0.85620550  0.17837314  0.63784243    -0.05450
C5129       C  0.86978668  0.19204634  0.64177169    -0.32420
C5130       C  0.86465884  0.21017555  0.64728449     0.36640
H5131       H  0.81726558  0.20490393  0.64549534     0.17010
O5132       O  0.82339714  0.17049629  0.63549269    -0.59910
H5133       H  0.88454627  0.18858960  0.64101988     0.17020
O5134       O  0.87839136  0.22259124  0.65227430    -0.60010
H5135       H  0.88412021  0.22662481  0.64033822     0.44020
H5136       H  0.82030110  0.17198464  0.62205289     0.43980
C5137       C  0.86205492  0.32162071  0.64253002    -0.05090
C5138       C  0.86063881  0.31722108  0.66157598    -0.32520
C5139       C  0.85470640  0.29948161  0.66731992     0.36730
C5140       C  0.85000416  0.28570889  0.65390878    -0.05450
C5141       C  0.85217692  0.28986156  0.63488629    -0.32420
C5142       C  0.85821853  0.30753322  0.62915200     0.36640
H5143       H  0.86390773  0.32763063  0.67211508     0.17010
O5144       O  0.85403847  0.29554525  0.68608470    -0.59910
H5145       H  0.84861328  0.27954997  0.62434673     0.17020
O5146       O  0.85969896  0.31099813  0.61036666    -0.60010
H5147       H  0.87267221  0.30730748  0.60704327     0.44020
H5148       H  0.84378700  0.30342725  0.69119625     0.43980
C5149       C  0.71375397  0.14873583  0.84546076    -0.05090
C5150       C  0.69803232  0.16025371  0.84190012    -0.32520
C5151       C  0.67989525  0.15441603  0.84604482     0.36730
C5152       C  0.67704485  0.13709591  0.85462114    -0.05450
C5153       C  0.69251052  0.12565142  0.85871691    -0.32420
C5154       C  0.71071140  0.13110457  0.85379855     0.36640
H5155       H  0.69971971  0.17409984  0.83609394     0.17010
O5156       O  0.66506486  0.16606851  0.84224268    -0.59910
H5157       H  0.69042225  0.11231076  0.86551652     0.17020
O5158       O  0.72523199  0.11893627  0.85698363    -0.60010
H5159       H  0.72701422  0.11216207  0.84499476     0.44020
H5160       H  0.66317030  0.17350426  0.85382179     0.43980
C5161       C  0.78421433  0.15377787  0.85327705    -0.05090
C5162       C  0.79431003  0.14101334  0.84231514    -0.32520
C5163       C  0.81264272  0.13605384  0.84700421     0.36730
C5164       C  0.82134983  0.14411630  0.86275328    -0.05450
C5165       C  0.81128695  0.15695055  0.87379820    -0.32420
C5166       C  0.79270341  0.16168773  0.86920581     0.36640
H5167       H  0.78808358  0.13525283  0.82972246     0.17010
O5168       O  0.82234934  0.12412545  0.83546259    -0.59910
H5169       H  0.81776450  0.16312981  0.88604662     0.17020
O5170       O  0.78319259  0.17444695  0.87995971    -0.60010
H5171       H  0.77593745  0.16687475  0.88896689     0.44020
H5172       H  0.81842370  0.11139569  0.83918726     0.43980
C5173       C  0.65287683  0.34765536  0.71377752    -0.05090
C5174       C  0.63457263  0.35466385  0.71122420    -0.32520
C5175       C  0.62812277  0.35994058  0.69343775     0.36730
C5176       C  0.63967616  0.35752913  0.67772720    -0.05450
C5177       C  0.65790292  0.35085672  0.68011579    -0.32420
C5178       C  0.66474116  0.34638710  0.69791845     0.36640
H5179       H  0.62510363  0.35590316  0.72295612     0.17010
O5180       O  0.61052879  0.36746731  0.69155363    -0.59910
H5181       H  0.66719102  0.34985839  0.66818425     0.17020
O5182       O  0.68341106  0.34209684  0.69979115    -0.60010
H5183       H  0.68540815  0.33043568  0.69249103     0.44020
H5184       H  0.60230183  0.35675634  0.68847395     0.43980
C5185       C  0.65205660  0.35045352  0.78484231    -0.05090
C5186       C  0.64104157  0.33851496  0.79570854    -0.32520
C5187       C  0.63580686  0.34353507  0.81386222     0.36730
C5188       C  0.64202101  0.36050476  0.82164078    -0.05450
C5189       C  0.65302536  0.37253348  0.81080360    -0.32420
C5190       C  0.65785269  0.36769155  0.79236969     0.36640
H5191       H  0.63683214  0.32503449  0.79019942     0.17010
O5192       O  0.62549620  0.33127700  0.82430402    -0.59910
H5193       H  0.65770342  0.38574047  0.81657357     0.17020
O5194       O  0.66891854  0.37944760  0.78215155    -0.60010
H5195       H  0.66005303  0.38753395  0.77515127     0.44020
H5196       H  0.61228237  0.33367698  0.82073420     0.43980
C5197       C  0.72156692  0.27837563  0.75166657    -0.05090
C5198       C  0.72623878  0.29726904  0.74949494    -0.32520
C5199       C  0.71231142  0.31102071  0.74968793     0.36730
C5200       C  0.69348670  0.30591615  0.75194434    -0.05450
C5201       C  0.68872632  0.28712937  0.75420111    -0.32420
C5202       C  0.70262412  0.27333613  0.75398689     0.36640
H5203       H  0.74070933  0.30135383  0.74770157     0.17010
O5204       O  0.71714144  0.32939221  0.74730152    -0.59910
H5205       H  0.67419663  0.28316042  0.75579842     0.17020
O5206       O  0.69751247  0.25495094  0.75559694    -0.60010
H5207       H  0.69643591  0.25026733  0.74257072     0.44020
H5208       H  0.71864443  0.33448711  0.76013093     0.43980
C5209       C  0.75082495  0.19140949  0.80520902    -0.05090
C5210       C  0.73417150  0.20115709  0.80108492    -0.32520
C5211       C  0.73336073  0.21438262  0.78685581     0.36730
C5212       C  0.74984121  0.21971942  0.77743425    -0.05450
C5213       C  0.76656244  0.21010040  0.78160297    -0.32420
C5214       C  0.76702859  0.19567896  0.79478830     0.36640
H5215       H  0.72144932  0.19853182  0.80880265     0.17010
O5216       O  0.71618156  0.22159460  0.78210664    -0.59910
H5217       H  0.77949963  0.21362200  0.77465098     0.17020
O5218       O  0.78310021  0.18523556  0.79653440    -0.60010
H5219       H  0.79273749  0.19391865  0.80146134     0.44020
H5220       H  0.71204148  0.21420669  0.77109901     0.43980
C5221       C  0.77708462  0.24957411  0.72047513    -0.05090
C5222       C  0.77198915  0.25139454  0.70159743    -0.32520
C5223       C  0.78570436  0.25165456  0.68769159     0.36730
C5224       C  0.80469603  0.25035188  0.69267706    -0.05450
C5225       C  0.80984385  0.24873398  0.71148792    -0.32420
C5226       C  0.79618050  0.24840076  0.72539336     0.36640
H5227       H  0.75736423  0.25236537  0.69764713     0.17010
O5228       O  0.78047887  0.25332508  0.66930368    -0.59910
H5229       H  0.82449379  0.24778258  0.71536481     0.17020
O5230       O  0.80161974  0.24714570  0.74376254    -0.60010
H5231       H  0.80212416  0.26023591  0.74834047     0.44020
H5232       H  0.77941786  0.24031331  0.66460249     0.43980
loop_ 
_geom_bond_atom_site_label_1 
_geom_bond_atom_site_label_2 
_geom_bond_distance 
_geom_bond_site_symmetry_2 
_ccdc_geom_bond_type 
C1            C2   1.401       .  A
C1            C6   1.399       .  A
C1         C5221   1.474       .  S
C2            C3   1.407       .  A
C2            H7   1.082       .  S
C3            C4   1.406       .  A
C3         C5212   1.494       .  S
C4            C5   1.400       .  A
C4            H8   1.081       .  S
C5            C6   1.400       .  A
C5         C5197   1.476       .  S
C6            H9   1.084       .  S
C10          C11   1.398       .  A
C10          C15   1.411       .  A
C10        C5185   1.477       .  S
C11          C12   1.391       .  A
C11          H16   1.085       .  S
C12          C13   1.394       .  A
C12        C5200   1.464       .  S
C13          C14   1.407       .  A
C13          H17   1.081       .  S
C14          C15   1.418       .  A
C14        C5173   1.500       .  S
C15          H18   1.082       .  S
C19          C20   1.406       .  A
C19          C24   1.413       .  A
C19        C5149   1.500       .  S
C20          C21   1.404       .  A
C20          H25   1.082       .  S
C21          C22   1.402       .  A
C21        C5209   1.495       .  S
C22          C23   1.398       .  A
C22          H26   1.080       .  S
C23          C24   1.406       .  A
C23        C5161   1.475       .  S
C24          H27   1.081       .  S
C28          C29   1.403       .  A
C28          C33   1.413       .  A
C28        C5140   1.490       .  S
C29          C30   1.395       .  A
C29          H34   1.083       .  S
C30          C31   1.394       .  A
C30        C5224   1.465       .  S
C31          C32   1.403       .  A
C31          H35   1.084       .  S
C32          C33   1.413       .  A
C32        C5125   1.491       .  S
C33          H36   1.082       .  S
In37         O39   2.207       .  S
In37         O40   2.263       .  S
In37         O48   2.224       .  S
In37         O42   2.246       .  S
In37         O44   2.246       .  S
In37         O45   2.241       .  S
In37         O46   2.224       .  S
In37         O49   2.212       .  S
C38        C5101   1.487       .  S
C38          O44   1.271       .  A
C38          O46   1.265       .  A
O39          C47   1.261       .  A
O40          C47   1.270       .  A
C41        C5089   1.469       .  S
C41          O48   1.261       .  A
C41          O42   1.269       .  A
C43        C5113   1.483       .  S
C43          O45   1.272       .  A
C43          O49   1.264       .  A
C47        C5164   1.476       .  S
C50          C51   1.396   1_546  A
C50          C55   1.395       .  A
C50        C5068   1.461       .  S
C51          C52   1.403       .  A
C51          H56   1.084       .  S
C52          C53   1.406       .  A
C52        C5080   1.484       .  S
C53          C54   1.403   1_564  A
C53          H57   1.082       .  S
C54          C55   1.400       .  A
C54        C5053   1.477       .  S
C55          H58   1.084       .  S
C59          C60   1.418       .  A
C59          C64   1.404       .  A
C59        C5092   1.495       .  S
C60          C61   1.416   1_556  A
C60          H65   1.083       .  S
C61          C62   1.402       .  A
C61        C5041   1.491       .  S
C62          C63   1.390   1_554  A
C62          H66   1.084       .  S
C63          C64   1.391       .  A
C63        C5056   1.463       .  S
C64          H67   1.083       .  S
C68          C69   1.403       .  A
C68          C73   1.417   1_565  A
C68        C5017   1.496       .  S
C69          C70   1.394   1_565  A
C69          H74   1.082       .  S
C70          C71   1.393       .  A
C70        C5065   1.475       .  S
C71          C72   1.404       .  A
C71          H75   1.082       .  S
C72          C73   1.417       .  A
C72        C5029   1.497       .  S
C73          H76   1.082       .  S
C77          C78   1.403       .  A
C77          C82   1.415       .  A
C77        C5005   1.488       .  S
C78          C79   1.392       .  A
C78          H83   1.083       .  S
C79          C80   1.392       .  A
C79        C5077   1.465       .  S
C80          C81   1.403       .  A
C80          H84   1.082       .  S
C81          C82   1.416       .  A
C81        C4993   1.496       .  S
C82          H85   1.083       .  S
In86         O88   2.210       .  S
In86         O89   2.246       .  S
In86         O97   2.222       .  S
In86         O91   2.236       .  S
In86         O93   2.248       .  S
In86         O94   2.252       .  S
In86         O95   2.221       .  S
In86         O98   2.215       .  S
C87        C5044   1.468       .  S
C87          O93   1.269       .  A
C87          O95   1.262       .  A
O88          C96   1.263       .  A
O89          C96   1.272       .  A
C90        C4957   1.484       .  S
C90          O97   1.266       .  A
C90          O91   1.271       .  A
C92        C4984   1.474       .  S
C92          O94   1.270       .  A
C92          O98   1.263       .  A
C96        C4969   1.483       .  S
In99        O101   2.215       .  S
In99        O102   2.251       .  S
In99        O110   2.226       .  S
In99        O104   2.242       .  S
In99        O106   2.245       .  S
In99        O107   2.243       .  S
In99        O108   2.219       .  S
In99        O111   2.216       .  S
C100       C4948   1.483       .  S
C100        O106   1.270       .  A
C100        O108   1.263       .  A
O101        C109   1.262       .  A
O102        C109   1.270       .  A
C103       C4933   1.469       .  S
C103        O110   1.262       .  A
C103        O104   1.268       .  A
C105       C4909   1.484       .  S
C105        O107   1.271       .  A
C105        O111   1.264       .  A
C109       C4921   1.484       .  S
In112       O114   2.225       .  S
In112       O115   2.239       .  S
In112       O123   2.222       .  S
In112       O117   2.246       .  S
In112       O119   2.238       .  S
In112       O120   2.256       .  S
In112       O121   2.215       .  S
In112       O124   2.222       .  S
C113       C4885   1.480       .  S
C113        O119   1.271       .  A
C113        O121   1.264       .  A
O114        C122   1.264       .  A
O115        C122   1.270       .  A
C116       C5152   1.470       .  S
C116        O123   1.262       .  A
C116        O117   1.269       .  A
C118       C4897   1.487       .  S
C118        O120   1.271       .  A
C118        O124   1.262       .  A
C122       C5032   1.469       .  S
C125        C126   1.405       .  A
C125        C130   1.411       .  A
C125       C4864   1.491       .  S
C126        C127   1.400       .  A
C126        H131   1.084       .  S
C127        C128   1.398       .  A
C127       C4876   1.481       .  S
C128        C129   1.401       .  A
C128        H132   1.083       .  S
C129        C130   1.408       .  A
C129       C4849   1.483       .  S
C130        H133   1.082       .  S
C134        C135   1.404       .  A
C134        C139   1.414       .  A
C134       C4813   1.489       .  S
C135        C136   1.394       .  A
C135        H140   1.084       .  S
C136        C137   1.392       .  A
C136       C4837   1.464       .  S
C137        C138   1.402       .  A
C137        H141   1.083       .  S
C138        C139   1.413       .  A
C138       C4825   1.488       .  S
C139        H142   1.083       .  S
C143        C144   1.407       .  A
C143        C148   1.415       .  A
C143       C4777   1.498       .  S
C144        C145   1.395       .  A
C144        H149   1.083       .  S
C145        C146   1.394       .  A
C145       C4801   1.466       .  S
C146        C147   1.398       .  A
C146        H150   1.084       .  S
C147        C148   1.409       .  A
C147       C4789   1.477       .  S
C148        H151   1.082       .  S
C152        C153   1.406       .  A
C152        C157   1.404       .  A
C152       C4804   1.482       .  S
C153        C154   1.403       .  A
C153        H158   1.084       .  S
C154        C155   1.399       .  A
C154       C4840   1.475       .  S
C155        C156   1.395       .  A
C155        H159   1.084       .  S
C156        C157   1.398       .  A
C156       C4873   1.464       .  S
C157        H160   1.083       .  S
C161        C162   1.397       .  A
C161        C166   1.399       .  A
C161       C4765   1.464       .  S
C162        C163   1.399       .  A
C162        H167   1.084       .  S
C163        C164   1.400       .  A
C163       C4753   1.466       .  S
C164        C165   1.400       .  A
C164        H168   1.084       .  S
C165        C166   1.400       .  A
C165       C4741   1.466       .  S
C166        H169   1.084       .  S
C170        C171   1.399       .  A
C170        C175   1.408       .  A
C170       C4717   1.476       .  S
C171        C172   1.395       .  A
C171        H176   1.085       .  S
C172        C173   1.397       .  A
C172       C4756   1.467       .  S
C173        C174   1.404       .  A
C173        H177   1.084       .  S
C174        C175   1.411       .  A
C174       C4729   1.488       .  S
C175        H178   1.083       .  S
C179        C180   1.403       .  A
C179        C184   1.411       .  A
C179       C4705   1.491       .  S
C180        C181   1.400       .  A
C180        H185   1.084       .  S
C181        C182   1.401       .  A
C181       C4744   1.485       .  S
C182        C183   1.404       .  A
C182        H186   1.082       .  S
C183        C184   1.412       .  A
C183       C4693   1.494       .  S
C184        H187   1.082       .  S
C188        C189   1.401       .  A
C188        C193   1.410       .  A
C188       C4684   1.485       .  S
C189        C190   1.397       .  A
C189        H194   1.084       .  S
C190        C191   1.399       .  A
C190       C4768   1.479       .  S
C191        C192   1.405       .  A
C191        H195   1.081       .  S
C192        C193   1.413       .  A
C192       C4669   1.495       .  S
C193        H196   1.083       .  S
In197       O199   2.225       .  S
In197       O200   2.244       .  S
In197       O208   2.215       .  S
In197       O202   2.256       .  S
In197       O204   2.244       .  S
In197       O205   2.244       .  S
In197       O206   2.218       .  S
In197       O209   2.219       .  S
C198       C4633   1.485       .  S
C198        O204   1.271       .  A
C198        O206   1.265       .  A
O199        C207   1.262       .  A
O200        C207   1.269       .  A
C201       C4645   1.483       .  S
C201        O208   1.262       .  A
C201        O202   1.271       .  A
C203       C4621   1.484       .  S
C203        O205   1.271       .  A
C203        O209   1.264       .  A
C207       C4657   1.469       .  S
C210        C211   1.406       .  A
C210        C215   1.414       .  A
C210       C4585   1.498       .  S
C211        C212   1.401   1_554  A
C211        H216   1.080       .  S
C212        C213   1.397       .  A
C212       C4612   1.486       .  S
C213        C214   1.401       .  A
C213        H217   1.083       .  S
C214        C215   1.410   1_556  A
C214       C4597   1.484       .  S
C215        H218   1.083       .  S
C219        C220   1.399       .  A
C219        C224   1.402       .  A
C219       C4549   1.473       .  S
C220        C221   1.407       .  A
C220        H225   1.082       .  S
C221        C222   1.407       .  A
C221       C4573   1.495       .  S
C222        C223   1.400       .  A
C222        H226   1.081       .  S
C223        C224   1.404       .  A
C223       C4564   1.479       .  S
C224        H227   1.084       .  S
C228        C229   1.398       .  A
C228        C233   1.395   1_556  A
C228       C4609   1.467       .  S
C229        C230   1.411   1_565  A
C229        H234   1.082       .  S
C230        C231   1.410   1_556  A
C230       C4576   1.498       .  S
C231        C232   1.400       .  A
C231        H235   1.080       .  S
C232        C233   1.395   1_545  A
C232       C4540   1.467       .  S
C233        H236   1.084       .  S
C237        C238   1.405       .  A
C237        C242   1.399       .  A
C237       C4525   1.473       .  S
C238        C239   1.406   1_545  A
C238        H243   1.084       .  S
C239        C240   1.401       .  A
C239       C4648   1.478       .  S
C240        C241   1.405   1_565  A
C240        H244   1.084       .  S
C241        C242   1.402       .  A
C241       C4537   1.485       .  S
C242        H245   1.083       .  S
In246       O248   2.214       .  S
In246       O249   2.255       .  S
In246       O257   2.224       .  S
In246       O251   2.248       .  S
In246       O253   2.252       .  S
In246       O254   2.238       .  S
In246       O255   2.221       .  S
In246       O258   2.217       .  S
C247       C4501   1.479       .  S
C247        O253   1.270       .  A
C247        O255   1.264       .  A
O248        C256   1.260       .  A
O249        C256   1.268       .  A
C250       C4513   1.469       .  S
C250        O257   1.261       .  A
C250        O251   1.269       .  A
C252       C4732   1.483       .  S
C252        O254   1.270       .  A
C252        O258   1.266       .  A
C256       C4600   1.468       .  S
C259        C260   1.403       .  A
C259        C264   1.409       .  A
C259       C4465   1.486       .  S
C260        C261   1.403       .  A
C260        H265   1.083       .  S
C261        C262   1.403   1_655  A
C261       C4492   1.488       .  S
C262        C263   1.400       .  A
C262        H266   1.084       .  S
C263        C264   1.406   1_455  A
C263       C4477   1.476       .  S
C264        H267   1.083       .  S
C268        C269   1.408       .  A
C268        C273   1.400       .  A
C268       C4441   1.476       .  S
C269        C270   1.408   1_545  A
C269        H274   1.083       .  S
C270        C271   1.401       .  A
C270       C4504   1.476       .  S
C271        C272   1.398   1_565  A
C271        H275   1.084       .  S
C272        C273   1.397       .  A
C272       C4453   1.467       .  S
C273        H276   1.085       .  S
C277        C278   1.397       .  A
C277        C282   1.399   1_465  A
C277       C4489   1.467       .  S
C278        C279   1.401   1_565  A
C278        H283   1.084       .  S
C279        C280   1.404   1_455  A
C279       C4456   1.477       .  S
C280        C281   1.407       .  A
C280        H284   1.083       .  S
C281        C282   1.405       .  A
C281       C4429   1.486       .  S
C282        H285   1.083       .  S
C286        C287   1.404       .  A
C286        C291   1.411       .  A
C286       C5104   1.487       .  S
C287        C288   1.397       .  A
C287        H292   1.084       .  S
C288        C289   1.397       .  A
C288       C4432   1.469       .  S
C289        C290   1.400       .  A
C289        H293   1.084       .  S
C290        C291   1.408       .  A
C290       C4420   1.476       .  S
C291        H294   1.083       .  S
In295       O297   2.215       .  S
In295       O298   2.258       .  S
In295       O306   2.213       .  S
In295       O300   2.242       .  S
In295       O302   2.248       .  S
In295       O303   2.247       .  S
In295       O304   2.212       .  S
In295       O307   2.218       .  S
C296       C4561   1.481       .  S
C296        O302   1.270       .  A
C296        O304   1.263       .  A
O297        C305   1.262       .  A
O298        C305   1.271       .  A
C299       C4405   1.467       .  S
C299        O306   1.263       .  A
C299        O300   1.269       .  A
C301       C4393   1.486       .  S
C301        O303   1.272       .  A
C301        O307   1.264       .  A
C305       C4444   1.480       .  S
In308       O310   2.214       .  S
In308       O311   2.252       .  S
In308       O319   2.216       .  S
In308       O313   2.246       .  S
In308       O315   2.250       .  S
In308       O316   2.246       .  S
In308       O317   2.215       .  S
In308       O320   2.214       .  S
C309       C4792   1.483       .  S
C309        O315   1.271       .  A
C309        O317   1.264       .  A
O310        C318   1.263       .  A
O311        C318   1.271       .  A
C312       C4528   1.476       .  S
C312        O319   1.264       .  A
C312        O313   1.271       .  A
C314       C4369   1.485       .  S
C314        O316   1.272       .  A
C314        O320   1.264       .  A
C318       C4384   1.484       .  S
In321       O323   2.215       .  S
In321       O324   2.248       .  S
In321       O332   2.221       .  S
In321       O326   2.247       .  S
In321       O328   2.253       .  S
In321       O329   2.249       .  S
In321       O330   2.220       .  S
In321       O333   2.215       .  S
C322       C5008   1.486       .  S
C322        O328   1.270       .  A
C322        O330   1.263       .  A
O323        C331   1.263       .  A
O324        C331   1.270       .  A
C325       C4357   1.486       .  S
C325        O332   1.264       .  A
C325        O326   1.270       .  A
C327       C4348   1.482       .  S
C327        O329   1.270       .  A
C327        O333   1.263       .  A
C331       C4333   1.484       .  S
In334       O336   2.217       .  S
In334       O337   2.252       .  S
In334       O345   2.217       .  S
In334       O339   2.240       .  S
In334       O341   2.258       .  S
In334       O342   2.251       .  S
In334       O343   2.214       .  S
In334       O346   2.224       .  S
C335       C4297   1.482       .  S
C335        O341   1.270       .  A
C335        O343   1.262       .  A
O336        C344   1.263       .  A
O337        C344   1.270       .  A
C338       C4321   1.484       .  S
C338        O345   1.265       .  A
C338        O339   1.271       .  A
C340       C5020   1.470       .  S
C340        O342   1.269       .  A
C340        O346   1.262       .  A
C344       C4309   1.476       .  S
C347        C348   1.413       .  A
C347        C352   1.403       .  A
C347       C4273   1.489       .  S
C348        C349   1.413       .  A
C348        H353   1.082       .  S
C349        C350   1.404       .  A
C349       C4636   1.492       .  S
C350        C351   1.394       .  A
C350        H354   1.084       .  S
C351        C352   1.394       .  A
C351       C4285   1.466       .  S
C352        H355   1.083       .  S
C356        C357   1.404   1_556  A
C356        C361   1.405       .  A
C356       C4261   1.486   1_556  S
C357        C358   1.401       .  A
C357        H362   1.083       .  S
C358        C359   1.400   1_554  A
C358       C4288   1.478       .  S
C359        C360   1.403       .  A
C359        H363   1.083       .  S
C360        C361   1.404       .  A
C360       C4249   1.485       .  S
C361        H364   1.082       .  S
C365        C366   1.401       .  A
C365        C370   1.411       .  A
C365       C4237   1.485       .  S
C366        C367   1.394       .  A
C366        H371   1.084       .  S
C367        C368   1.396       .  A
C367       C4252   1.467       .  S
C368        C369   1.407       .  A
C368        H372   1.084       .  S
C369        C370   1.414       .  A
C369       C4225   1.495       .  S
C370        H373   1.082       .  S
C374        C375   1.408   1_554  A
C374        C379   1.401       .  A
C374       C4345   1.478       .  S
C375        C376   1.408       .  A
C375        H380   1.084       .  S
C376        C377   1.401       .  A
C376       C4300   1.476       .  S
C377        C378   1.397       .  A
C377        H381   1.084       .  S
C378        C379   1.397   1_556  A
C378       C4264   1.466       .  S
C379        H382   1.084       .  S
C383        C384   1.413       .  A
C383        C388   1.406       .  A
C383       C4204   1.491       .  S
C384        C385   1.407       .  A
C384        H389   1.083       .  S
C385        C386   1.398       .  A
C385       C4312   1.475       .  S
C386        C387   1.395       .  A
C386        H390   1.085       .  S
C387        C388   1.398       .  A
C387       C4213   1.467       .  S
C388        H391   1.083       .  S
C392        C393   1.402       .  A
C392        C397   1.408       .  A
C392       C4165   1.482       .  S
C393        C394   1.402       .  A
C393        H398   1.084       .  S
C394        C395   1.402       .  A
C394       C4189   1.488       .  S
C395        C396   1.403       .  A
C395        H399   1.082       .  S
C396        C397   1.409       .  A
C396       C4177   1.487       .  S
C397        H400   1.083       .  S
C401        C402   1.399       .  A
C401        C406   1.407       .  A
C401       C4141   1.474       .  S
C402        C403   1.396       .  A
C402        H407   1.084       .  S
C403        C404   1.397       .  A
C403       C4153   1.466       .  S
C404        C405   1.404       .  A
C404        H408   1.084       .  S
C405        C406   1.411       .  A
C405       C4129   1.487       .  S
C406        H409   1.083       .  S
C410        C411   1.398       .  A
C410        C415   1.399       .  A
C410       C4192   1.468       .  S
C411        C412   1.402       .  A
C411        H416   1.084       .  S
C412        C413   1.404       .  A
C412       C4156   1.479       .  S
C413        C414   1.405       .  A
C413        H417   1.083       .  S
C414        C415   1.403       .  A
C414       C4216   1.481       .  S
C415        H418   1.084       .  S
C419        C420   1.414       .  A
C419        C424   1.403       .  A
C419       C4360   1.489       .  S
C420        C421   1.416       .  A
C420        H425   1.083       .  S
C421        C422   1.404       .  A
C421       C4660   1.496       .  S
C422        C423   1.393       .  A
C422        H426   1.082       .  S
C423        C424   1.392       .  A
C423       C4117   1.465       .  S
C424        H427   1.084       .  S
C428        C429   1.397       .  A
C428        C433   1.399       .  A
C428       C4108   1.465       .  S
C429        C430   1.399       .  A
C429        H434   1.084       .  S
C430        C431   1.401   1_545  A
C430       C4096   1.471       .  S
C431        C432   1.403       .  A
C431        H435   1.084       .  S
C432        C433   1.405   1_565  A
C432       C4120   1.481       .  S
C433        H436   1.084       .  S
C437        C438   1.411       .  A
C437        C442   1.403       .  A
C437       C4081   1.489       .  S
C438        C439   1.409       .  A
C438        H443   1.083       .  S
C439        C440   1.401       .  A
C439       C4381   1.481       .  S
C440        C441   1.399       .  A
C440        H444   1.084       .  S
C441        C442   1.399       .  A
C441       C4105   1.479       .  S
C442        H445   1.083       .  S
C446        C447   1.404       .  A
C446        C451   1.413       .  A
C446       C4060   1.493       .  S
C447        C448   1.394       .  A
C447        H452   1.084       .  S
C448        C449   1.394   1_545  A
C448       C4093   1.465       .  S
C449        C450   1.402       .  A
C449        H453   1.084       .  S
C450        C451   1.412   1_565  A
C450       C4069   1.487       .  S
C451        H454   1.082       .  S
In455       O457   2.224       .  S
In455       O458   2.239       .  S
In455       O466   2.221       .  S
In455       O460   2.248       .  S
In455       O462   2.248       .  S
In455       O463   2.255       .  S
In455       O464   2.216       .  S
In455       O467   2.221       .  S
C456       C4021   1.481       .  S
C456        O462   1.271       .  A
C456        O464   1.264       .  A
O457        C465   1.264       .  A
O458        C465   1.270       .  A
C459       C4033   1.469       .  S
C459        O466   1.261       .  A
C459        O460   1.269       .  A
C461       C4009   1.486       .  S
C461        O463   1.270       .  A
C461        O467   1.262       .  A
C465       C4045   1.469       .  S
In468       O470   2.222       .  S
In468       O471   2.249       .  S
In468       O479   2.220       .  S
In468       O473   2.253       .  S
In468       O475   2.262       .  S
In468       O476   2.244       .  S
In468       O477   2.214       .  S
In468       O480   2.220       .  S
C469       C3985   1.476       .  S
C469        O475   1.270       .  A
C469        O477   1.261       .  A
O470        C478   1.261       .  A
O471        C478   1.268       .  A
C472       C3997   1.487       .  S
C472        O479   1.263       .  A
C472        O473   1.271       .  A
C474       C4681   1.485       .  S
C474        O476   1.271       .  A
C474        O480   1.265       .  A
C478       C3973   1.468       .  S
C481        C482   1.400       .  A
C481        C486   1.403   1_655  A
C481       C3961   1.475       .  S
C482        C483   1.399       .  A
C482        H487   1.084       .  S
C483        C484   1.399   1_655  A
C483       C3949   1.470       .  S
C484        C485   1.402       .  A
C484        H488   1.084       .  S
C485        C486   1.403       .  A
C485       C3937   1.478       .  S
C486        H489   1.084       .  S
C490        C491   1.413       .  A
C490        C495   1.405       .  A
C490       C3928   1.490       .  S
C491        C492   1.409       .  A
C491        H496   1.083       .  S
C492        C493   1.399       .  A
C492       C4024   1.478       .  S
C493        C494   1.395       .  A
C493        H497   1.085       .  S
C494        C495   1.397       .  A
C494       C3940   1.466       .  S
C495        H498   1.084       .  S
C499        C500   1.402       .  A
C499        C504   1.413       .  A
C499       C3913   1.488       .  S
C500        C501   1.393       .  A
C500        H505   1.083       .  S
C501        C502   1.394       .  A
C501       C3952   1.465       .  S
C502        C503   1.405       .  A
C502        H506   1.084       .  S
C503        C504   1.414       .  A
C503       C3901   1.494       .  S
C504        H507   1.082       .  S
C508        C509   1.411   1_655  A
C508        C513   1.401       .  A
C508       C3889   1.481       .  S
C509        C510   1.414       .  A
C509        H514   1.083       .  S
C510        C511   1.405       .  A
C510       C3976   1.491       .  S
C511        C512   1.394   1_455  A
C511        H515   1.084       .  S
C512        C513   1.394       .  A
C512       C3964   1.465       .  S
C513        H516   1.084       .  S
C517        C518   1.413       .  A
C517        C522   1.403       .  A
C517       C3865   1.490       .  S
C518        C519   1.413       .  A
C518        H523   1.081       .  S
C519        C520   1.403       .  A
C519       C4924   1.489       .  S
C520        C521   1.393       .  A
C520        H524   1.084       .  S
C521        C522   1.392       .  A
C521       C3880   1.464       .  S
C522        H525   1.084       .  S
C526        C527   1.405   1_556  A
C526        C531   1.412       .  A
C526       C3856   1.503       .  S
C527        C528   1.398       .  A
C527        H532   1.080       .  S
C528        C529   1.397       .  A
C528       C3877   1.475       .  S
C529        C530   1.401   1_554  A
C529        H533   1.082       .  S
C530        C531   1.411       .  A
C530       C3841   1.499       .  S
C531        H534   1.075       .  S
C535        C536   1.399       .  A
C535        C540   1.407       .  A
C535       C3829   1.478       .  S
C536        C537   1.406       .  A
C536        H541   1.082       .  S
C537        C538   1.402       .  A
C537       C3844   1.498       .  S
C538        C539   1.406       .  A
C538        H542   1.080       .  S
C539        C540   1.414       .  A
C539       C3817   1.503       .  S
C540        H543   1.080       .  S
C544        C545   1.402       .  A
C544        C549   1.406       .  A
C544       C3805   1.488       .  S
C545        C546   1.405       .  A
C545        H550   1.077       .  S
C546        C547   1.408   1_556  A
C546       C3853   1.499       .  S
C547        C548   1.403       .  A
C547        H551   1.081       .  S
C548        C549   1.407   1_554  A
C548       C3796   1.489       .  S
C549        H552   1.083       .  S
In553       O555   2.218       .  S
In553       O556   2.249       .  S
In553       O564   2.216       .  S
In553       O558   2.259       .  S
In553       O560   2.251       .  S
In553       O561   2.242       .  S
In553       O562   2.219       .  S
In553       O565   2.222       .  S
C554       C3892   1.485       .  S
C554        O560   1.270       .  A
C554        O562   1.263       .  A
O555        C563   1.262       .  A
O556        C563   1.268       .  A
C557       C3832   1.479       .  S
C557        O564   1.263       .  A
C557        O558   1.270       .  A
C559       C3781   1.485       .  S
C559        O561   1.270       .  A
C559        O565   1.265       .  A
C563       C4180   1.467       .  S
In566       O568   2.217       .  S
In566       O569   2.251       .  S
In566       O577   2.218       .  S
In566       O571   2.250       .  S
In566       O573   2.237       .  S
In566       O574   2.246       .  S
In566       O575   2.221       .  S
In566       O578   2.220       .  S
C567       C3733   1.483       .  S
C567        O573   1.270       .  A
C567        O575   1.265       .  A
O568        C576   1.263       .  A
O569        C576   1.270       .  A
C570       C3769   1.484       .  S
C570        O577   1.263       .  A
C570        O571   1.270       .  A
C572       C3745   1.468       .  S
C572        O574   1.269       .  A
C572        O578   1.262       .  A
C576       C3757   1.485       .  S
In579       O581   2.225       .  S
In579       O582   2.245       .  S
In579       O590   2.214       .  S
In579       O584   2.245       .  S
In579       O586   2.249       .  S
In579       O587   2.243       .  S
In579       O588   2.212       .  S
In579       O591   2.220       .  S
C580       C3697   1.481       .  S
C580        O586   1.272       .  A
C580        O588   1.263       .  A
O581        C589   1.263       .  A
O582        C589   1.269       .  A
C583       C3709   1.484       .  S
C583        O590   1.264       .  A
C583        O584   1.272       .  A
C585       C3721   1.468       .  S
C585        O587   1.270       .  A
C585        O591   1.263       .  A
C589       C4588   1.470       .  S
C592        C593   1.411       .  A
C592        C597   1.402       .  A
C592       C3784   1.488       .  S
C593        C594   1.412   1_556  A
C593        H598   1.081       .  S
C594        C595   1.404       .  A
C594       C4945   1.492       .  S
C595        C596   1.399   1_554  A
C595        H599   1.083       .  S
C596        C597   1.399       .  A
C596       C3688   1.483       .  S
C597        H600   1.083       .  S
C601        C602   1.411   1_455  A
C601        C606   1.401       .  A
C601       C3712   1.483       .  S
C602        C603   1.414       .  A
C602        H607   1.083       .  S
C603        C604   1.405       .  A
C603       C3661   1.492       .  S
C604        C605   1.396       .  A
C604        H608   1.083       .  S
C605        C606   1.393   1_655  A
C605       C3673   1.465   1_655  S
C606        H609   1.084       .  S
C610        C611   1.401       .  A
C610        C615   1.403   1_654  A
C610       C3676   1.476   1_655  S
C611        C612   1.397   1_554  A
C611        H616   1.084       .  S
C612        C613   1.398       .  A
C612       C3685   1.465   1_556  S
C613        C614   1.401   1_655  A
C613        H617   1.084       .  S
C614        C615   1.405       .  A
C614       C3652   1.478       .  S
C615        H618   1.084       .  S
C619        C620   1.415       .  A
C619        C624   1.404       .  A
C619       C4000   1.491       .  S
C620        C621   1.414       .  A
C620        H625   1.083       .  S
C621        C622   1.403       .  A
C621       C4516   1.492       .  S
C622        C623   1.392       .  A
C622        H626   1.083       .  S
C623        C624   1.394       .  A
C623       C3649   1.465       .  S
C624        H627   1.083       .  S
In628       O630   2.217       .  S
In628       O631   2.246       .  S
In628       O639   2.213       .  S
In628       O633   2.246       .  S
In628       O635   2.258       .  S
In628       O636   2.246       .  S
In628       O637   2.209       .  S
In628       O640   2.226       .  S
C629       C3637   1.475       .  S
C629        O635   1.271       .  A
C629        O637   1.262       .  A
O630        C638   1.265       .  A
O631        C638   1.271       .  A
C632       C3625   1.484       .  S
C632        O639   1.264       .  A
C632        O633   1.272       .  A
C634       C4996   1.469       .  S
C634        O636   1.269       .  A
C634        O640   1.262       .  A
C638       C3664   1.485       .  S
C641        C642   1.402       .  A
C641        C646   1.408       .  A
C641       C3601   1.485       .  S
C642        C643   1.401       .  A
C642        H647   1.083       .  S
C643        C644   1.402       .  A
C643       C3613   1.485       .  S
C644        C645   1.401       .  A
C644        H648   1.084       .  S
C645        C646   1.408       .  A
C645       C3589   1.482       .  S
C646        H649   1.083       .  S
C650        C651   1.405       .  A
C650        C655   1.404       .  A
C650       C3577   1.481       .  S
C651        C652   1.399       .  A
C651        H656   1.083       .  S
C652        C653   1.397       .  A
C652       C3616   1.465       .  S
C653        C654   1.397       .  A
C653        H657   1.084       .  S
C654        C655   1.397       .  A
C654       C3565   1.463       .  S
C655        H658   1.084       .  S
C659        C660   1.413       .  A
C659        C664   1.404       .  A
C659       C3628   1.493       .  S
C660        C661   1.411       .  A
C660        H665   1.083       .  S
C661        C662   1.401       .  A
C661       C4912   1.488       .  S
C662        C663   1.396       .  A
C662        H666   1.083       .  S
C663        C664   1.398       .  A
C663       C3568   1.474       .  S
C664        H667   1.083       .  S
C668        C669   1.409       .  A
C668        C673   1.399       .  A
C668       C3553   1.480       .  S
C669        C670   1.412       .  A
C669        H674   1.082       .  S
C670        C671   1.405       .  A
C670       C4336   1.490       .  S
C671        C672   1.395       .  A
C671        H675   1.084       .  S
C672        C673   1.393       .  A
C672       C3580   1.464       .  S
C673        H676   1.084       .  S
C677        C678   1.413       .  A
C677        C682   1.404       .  A
C677       C3529   1.491       .  S
C678        C679   1.412       .  A
C678        H683   1.082       .  S
C679        C680   1.402       .  A
C679       C4972   1.486       .  S
C680        C681   1.394       .  A
C680        H684   1.084       .  S
C681        C682   1.395       .  A
C681       C3541   1.466       .  S
C682        H685   1.084       .  S
C686        C687   1.407   1_455  A
C686        C691   1.400       .  A
C686       C4408   1.476       .  S
C687        C688   1.411       .  A
C687        H692   1.083       .  S
C688        C689   1.404       .  A
C688       C5116   1.484       .  S
C689        C690   1.396   1_655  A
C689        H693   1.084       .  S
C690        C691   1.394       .  A
C690       C3517   1.465       .  S
C691        H694   1.085       .  S
C695        C696   1.405   1_455  A
C695        C700   1.402       .  A
C695       C3520   1.481       .  S
C696        C697   1.406   1_556  A
C696        H701   1.083   1_556  S
C697        C698   1.403       .  A
C697       C3544   1.484       .  S
C698        C699   1.395   1_654  A
C698        H702   1.083       .  S
C699        C700   1.396       .  A
C699       C3505   1.463       .  S
C700        H703   1.084       .  S
C704        C705   1.412   1_554  A
C704        C709   1.402       .  A
C704       C3493   1.489       .  S
C705        C706   1.415       .  A
C705        H710   1.082       .  S
C706        C707   1.406       .  A
C706       C4036   1.499       .  S
C707        C708   1.397       .  A
C707        H711   1.083       .  S
C708        C709   1.396   1_556  A
C708       C3508   1.477   1_556  S
C709        H712   1.084       .  S
C713        C714   1.405       .  A
C713        C718   1.414       .  A
C713       C4936   1.496       .  S
C714        C715   1.395       .  A
C714        H719   1.082       .  S
C715        C716   1.395       .  A
C715       C3481   1.470       .  S
C716        C717   1.402       .  A
C716        H720   1.084       .  S
C717        C718   1.412       .  A
C717       C3469   1.487       .  S
C718        H721   1.083       .  S
C722        C723   1.399       .  A
C722        C727   1.400   1_655  A
C722       C3445   1.469       .  S
C723        C724   1.399       .  A
C723        H728   1.084       .  S
C724        C725   1.398   1_655  A
C724       C3484   1.467       .  S
C725        C726   1.403       .  A
C725        H729   1.084       .  S
C726        C727   1.404       .  A
C726       C3457   1.480       .  S
C727        H730   1.084       .  S
C731        C732   1.404       .  A
C731        C736   1.407   1_455  A
C731       C3421   1.485       .  S
C732        C733   1.405   1_455  A
C732        H737   1.083       .  S
C733        C734   1.403       .  A
C733       C3448   1.491       .  S
C734        C735   1.399       .  A
C734        H738   1.083       .  S
C735        C736   1.404       .  A
C735       C3433   1.473       .  S
C736        H739   1.083       .  S
C740        C741   1.397       .  A
C740        C745   1.407       .  A
C740       C3409   1.472       .  S
C741        C742   1.394       .  A
C741        H746   1.085       .  S
C742        C743   1.397       .  A
C742       C3460   1.465       .  S
C743        C744   1.406       .  A
C743        H747   1.084       .  S
C744        C745   1.412       .  A
C744       C3397   1.490       .  S
C745        H748   1.082       .  S
In749       O751   2.211       .  S
In749       O752   2.250       .  S
In749       O760   2.217       .  S
In749       O754   2.239       .  S
In749       O756   2.246       .  S
In749       O757   2.251       .  S
In749       O758   2.221       .  S
In749       O761   2.212       .  S
C750       C3532   1.485       .  S
C750        O756   1.270       .  A
C750        O758   1.264       .  A
O751        C759   1.263       .  A
O752        C759   1.271       .  A
C753       C3868   1.483       .  S
C753        O760   1.265       .  A
C753        O754   1.271       .  A
C755       C3385   1.485       .  S
C755        O757   1.271       .  A
C755        O761   1.263       .  A
C759       C3436   1.478       .  S
In762       O764   2.217       .  S
In762       O765   2.255       .  S
In762       O773   2.219       .  S
In762       O767   2.248       .  S
In762       O769   2.243       .  S
In762       O770   2.244       .  S
In762       O771   2.225       .  S
In762       O774   2.216       .  S
C763       C3349   1.470       .  S
C763        O769   1.268       .  A
C763        O771   1.262       .  A
O764        C772   1.262       .  A
O765        C772   1.270       .  A
C766       C3364   1.484       .  S
C766        O773   1.263       .  A
C766        O767   1.270       .  A
C768       C3400   1.484       .  S
C768        O770   1.270       .  A
C768        O774   1.264       .  A
C772       C3373   1.485       .  S
In775       O777   2.216       .  S
In775       O778   2.251       .  S
In775       O786   2.220       .  S
In775       O780   2.247       .  S
In775       O782   2.245       .  S
In775       O783   2.245       .  S
In775       O784   2.221       .  S
In775       O787   2.221       .  S
C776       C4828   1.466       .  S
C776        O782   1.269       .  A
C776        O784   1.262       .  A
O777        C785   1.262       .  A
O778        C785   1.269       .  A
C779       C3496   1.485       .  S
C779        O786   1.264       .  A
C779        O780   1.270       .  A
C781       C3424   1.485       .  S
C781        O783   1.270       .  A
C781        O787   1.264       .  A
C785       C3337   1.468       .  S
C788        C789   1.400       .  A
C788        C793   1.406       .  A
C788       C4888   1.479       .  S
C789        C790   1.400       .  A
C789        H794   1.083       .  S
C790        C791   1.403       .  A
C790       C3325   1.486       .  S
C791        C792   1.403       .  A
C791        H795   1.083       .  S
C792        C793   1.409       .  A
C792       C3313   1.487       .  S
C793        H796   1.083       .  S
C797        C798   1.398       .  A
C797        C802   1.397       .  A
C797       C3328   1.466       .  S
C798        C799   1.404       .  A
C798        H803   1.083       .  S
C799        C800   1.405   1_545  A
C799       C3301   1.482       .  S
C800        C801   1.401       .  A
C800        H804   1.084       .  S
C801        C802   1.398   1_565  A
C801       C3289   1.468       .  S
C802        H805   1.084       .  S
C806        C807   1.403       .  A
C806        C811   1.412       .  A
C806       C4324   1.489       .  S
C807        C808   1.394       .  A
C807        H812   1.084       .  S
C808        C809   1.395       .  A
C808       C3292   1.470       .  S
C809        C810   1.405       .  A
C809        H813   1.084       .  S
C810        C811   1.414       .  A
C810       C3277   1.494       .  S
C811        H814   1.082       .  S
C815        C816   1.405       .  A
C815        C820   1.414   1_565  A
C815       C3253   1.492       .  S
C816        C817   1.395   1_565  A
C816        H821   1.084       .  S
C817        C818   1.395       .  A
C817       C3304   1.466       .  S
C818        C819   1.401       .  A
C818        H822   1.084       .  S
C819        C820   1.411       .  A
C819       C3265   1.484       .  S
C820        H823   1.082       .  S
C824        C825   1.411       .  A
C824        C829   1.402       .  A
C824       C4396   1.489       .  S
C825        C826   1.413       .  A
C825        H830   1.081       .  S
C826        C827   1.406       .  A
C826       C4012   1.496       .  S
C827        C828   1.401       .  A
C827        H831   1.083       .  S
C828        C829   1.401       .  A
C828       C3241   1.487       .  S
C829        H832   1.084       .  S
C833        C834   1.400       .  A
C833        C838   1.402       .  A
C833       C3244   1.468       .  S
C834        C835   1.399       .  A
C834        H839   1.084       .  S
C835        C836   1.398       .  A
C835       C3229   1.465       .  S
C836        C837   1.400       .  A
C836        H840   1.084       .  S
C837        C838   1.403       .  A
C837       C3217   1.473       .  S
C838        H841   1.084       .  S
C842        C843   1.402       .  A
C842        C847   1.410       .  A
C842       C3205   1.490       .  S
C843        C844   1.403       .  A
C843        H848   1.080       .  S
C844        C845   1.408       .  A
C844       C3220   1.505       .  S
C845        C846   1.410       .  A
C845        H849   1.076       .  S
C846        C847   1.413       .  A
C846       C3193   1.508       .  S
C847        H850   1.081       .  S
C851        C852   1.402       .  A
C851        C856   1.409       .  A
C851       C3181   1.481       .  S
C852        C853   1.399       .  A
C852        H857   1.084       .  S
C853        C854   1.399       .  A
C853       C3232   1.475       .  S
C854        C855   1.399       .  A
C854        H858   1.084       .  S
C855        C856   1.406       .  A
C855       C3169   1.473       .  S
C856        H859   1.084       .  S
In860       O862   2.217       .  S
In860       O863   2.253       .  S
In860       O871   2.218       .  S
In860       O865   2.258       .  S
In860       O867   2.260       .  S
In860       O868   2.240       .  S
In860       O869   2.216       .  S
In860       O872   2.222       .  S
C861       C3145   1.477       .  S
C861        O867   1.270       .  A
C861        O869   1.263       .  A
O862        C870   1.263       .  A
O863        C870   1.269       .  A
C864       C3208   1.487       .  S
C864        O871   1.262       .  A
C864        O865   1.271       .  A
C866       C3157   1.484       .  S
C866        O868   1.270       .  A
C866        O872   1.265       .  A
C870       C3133   1.483       .  S
In873       O875   2.232       .  S
In873       O876   2.250       .  S
In873       O884   2.216       .  S
In873       O878   2.258       .  S
In873       O880   2.248       .  S
In873       O881   2.251       .  S
In873       O882   2.220       .  S
In873       O885   2.223       .  S
C874       C3121   1.487       .  S
C874        O880   1.271       .  A
C874        O882   1.264       .  A
O875        C883   1.262       .  A
O876        C883   1.269       .  A
C877       C3925   1.486       .  S
C877        O884   1.262       .  A
C877        O878   1.270       .  A
C879       C3109   1.486       .  S
C879        O881   1.270       .  A
C879        O885   1.263       .  A
C883       C3196   1.474       .  S
C886        C887   1.407       .  A
C886        C891   1.407       .  A
C886       C3097   1.490       .  S
C887        C888   1.402       .  A
C887        H892   1.082       .  S
C888        C889   1.397       .  A
C888       C3085   1.475       .  S
C889        C890   1.396       .  A
C889        H893   1.084       .  S
C890        C891   1.402       .  A
C890       C3073   1.473       .  S
C891        H894   1.083       .  S
C895        C896   1.401       .  A
C895        C900   1.414       .  A
C895       C3124   1.487       .  S
C896        C897   1.392       .  A
C896        H901   1.083       .  S
C897        C898   1.392       .  A
C897       C3076   1.465       .  S
C898        C899   1.405       .  A
C898        H902   1.081       .  S
C899        C900   1.418       .  A
C899       C3061   1.501       .  S
C900        H903   1.082       .  S
C904        C905   1.413       .  A
C904        C909   1.403       .  A
C904       C3052   1.488       .  S
C905        C906   1.413       .  A
C905        H910   1.083       .  S
C906        C907   1.403       .  A
C906       C3160   1.488       .  S
C907        C908   1.393       .  A
C907        H911   1.084       .  S
C908        C909   1.392       .  A
C908       C3088   1.463       .  S
C909        H912   1.083       .  S
C913        C914   1.404       .  A
C913        C918   1.410       .  A
C913       C3361   1.487       .  S
C914        C915   1.397       .  A
C914        H919   1.083       .  S
C915        C916   1.397       .  A
C915       C3100   1.469       .  S
C916        C917   1.401       .  A
C916        H920   1.084       .  S
C917        C918   1.408       .  A
C917       C3037   1.481       .  S
C918        H921   1.083       .  S
In922       O924   2.224       .  S
In922       O925   2.239       .  S
In922       O933   2.209       .  S
In922       O927   2.258       .  S
In922       O929   2.240       .  S
In922       O930   2.250       .  S
In922       O931   2.220       .  S
In922       O934   2.228       .  S
C923       C3025   1.467       .  S
C923        O929   1.269       .  A
C923        O931   1.263       .  A
O924        C932   1.266       .  A
O925        C932   1.270       .  A
C926       C3412   1.476       .  S
C926        O933   1.261       .  A
C926        O927   1.270       .  A
C928       C3064   1.471       .  S
C928        O930   1.268       .  A
C928        O934   1.260       .  A
C932       C4816   1.485       .  S
In935       O937   2.220       .  S
In935       O938   2.237       .  S
In935       O946   2.218       .  S
In935       O940   2.248       .  S
In935       O942   2.249       .  S
In935       O943   2.256       .  S
In935       O944   2.222       .  S
In935       O947   2.217       .  S
C936       C3013   1.469       .  S
C936        O942   1.269       .  A
C936        O944   1.261       .  A
O937        C945   1.264       .  A
O938        C945   1.269       .  A
C939       C3001   1.480       .  S
C939        O946   1.264       .  A
C939        O940   1.270       .  A
C941       C4696   1.485       .  S
C941        O943   1.270       .  A
C941        O947   1.261       .  A
C945       C3049   1.466       .  S
In948       O950   2.226       .  S
In948       O951   2.246       .  S
In948       O959   2.217       .  S
In948       O953   2.247       .  S
In948       O955   2.251       .  S
In948       O956   2.245       .  S
In948       O957   2.221       .  S
In948       O960   2.227       .  S
C949       C3256   1.486       .  S
C949        O955   1.270       .  A
C949        O957   1.263       .  A
O950        C958   1.262       .  A
O951        C958   1.268       .  A
C952       C4708   1.484       .  S
C952        O959   1.263       .  A
C952        O953   1.270       .  A
C954       C2989   1.468       .  S
C954        O956   1.268       .  A
C954        O960   1.262       .  A
C958       C2977   1.468       .  S
C961        C962   1.405       .  A
C961        C966   1.406       .  A
C961       C2941   1.494       .  S
C962        C963   1.399       .  A
C962        H967   1.082       .  S
C963        C964   1.400       .  A
C963       C2965   1.478       .  S
C964        C965   1.401       .  A
C964        H968   1.082       .  S
C965        C966   1.403       .  A
C965       C2953   1.481       .  S
C966        H969   1.080       .  S
C970        C971   1.419       .  A
C970        C975   1.408       .  A
C970       C3016   1.500       .  S
C971        C972   1.416       .  A
C971        H976   1.081       .  S
C972        C973   1.401       .  A
C972       C2929   1.491       .  S
C973        C974   1.389       .  A
C973        H977   1.083       .  S
C974        C975   1.392       .  A
C974       C2956   1.465       .  S
C975        H978   1.083       .  S
C979        C980   1.403       .  A
C979        C984   1.414       .  A
C979       C2980   1.490       .  S
C980        C981   1.392       .  A
C980        H985   1.083       .  S
C981        C982   1.392       .  A
C981       C2968   1.463       .  S
C982        C983   1.402       .  A
C982        H986   1.083       .  S
C983        C984   1.414       .  A
C983       C2917   1.488       .  S
C984        H987   1.083       .  S
C988        C989   1.400       .  A
C988        C993   1.408       .  A
C988       C2908   1.480       .  S
C989        C990   1.402       .  A
C989        H994   1.080       .  S
C990        C991   1.403       .  A
C990       C2944   1.495       .  S
C991        C992   1.403       .  A
C991        H995   1.081       .  S
C992        C993   1.411       .  A
C992       C2893   1.491       .  S
C993        H996   1.083       .  S
In997       O999   2.212       .  S
In997      O1000   2.250       .  S
In997      O1008   2.225       .  S
In997      O1002   2.248       .  S
In997      O1004   2.239       .  S
In997      O1005   2.256       .  S
In997      O1006   2.223       .  S
In997      O1009   2.212       .  S
C998       C3280   1.468       .  S
C998       O1004   1.269       .  A
C998       O1006   1.263       .  A
O999       C1007   1.263       .  A
O1000      C1007   1.272       .  A
C1001      C2881   1.470       .  S
C1001      O1008   1.261       .  A
C1001      O1002   1.268       .  A
C1003      C4144   1.477       .  S
C1003      O1005   1.271       .  A
C1003      O1009   1.262       .  A
C1007      C2920   1.484       .  S
In1010     O1012   2.216       .  S
In1010     O1013   2.250       .  S
In1010     O1021   2.216       .  S
In1010     O1015   2.249       .  S
In1010     O1017   2.244       .  S
In1010     O1018   2.249       .  S
In1010     O1019   2.219       .  S
In1010     O1022   2.208       .  S
C1011      C4072   1.485       .  S
C1011      O1017   1.270       .  A
C1011      O1019   1.264       .  A
O1012      C1020   1.264       .  A
O1013      C1020   1.271       .  A
C1014      C2905   1.468       .  S
C1014      O1021   1.262       .  A
C1014      O1015   1.269       .  A
C1016      C3556   1.482       .  S
C1016      O1018   1.271       .  A
C1016      O1022   1.262       .  A
C1020      C2869   1.484       .  S
C1023      C1024   1.414       .  A
C1023      C1028   1.405       .  A
C1023      C2845   1.492       .  S
C1024      C1025   1.412       .  A
C1024      H1029   1.080       .  S
C1025      C1026   1.403       .  A
C1025      C3736   1.491       .  S
C1026      C1027   1.393       .  A
C1026      H1030   1.084       .  S
C1027      C1028   1.395       .  A
C1027      C2857   1.466       .  S
C1028      H1031   1.084       .  S
C1032      C1033   1.401       .  A
C1032      C1037   1.403       .  A
C1032      C2821   1.483       .  S
C1033      C1034   1.400       .  A
C1033      H1038   1.081       .  S
C1034      C1035   1.402       .  A
C1034      C2860   1.481       .  S
C1035      C1036   1.408       .  A
C1035      H1039   1.081       .  S
C1036      C1037   1.407       .  A
C1036      C2836   1.500       .  S
C1037      H1040   1.080       .  S
C1041      C1042   1.404       .  A
C1041      C1046   1.414       .  A
C1041      C4960   1.494       .  S
C1042      C1043   1.393       .  A
C1042      H1047   1.084       .  S
C1043      C1044   1.395       .  A
C1043      C2824   1.468       .  S
C1044      C1045   1.405       .  A
C1044      H1048   1.084       .  S
C1045      C1046   1.414       .  A
C1045      C2812   1.492       .  S
C1046      H1049   1.081       .  S
C1050      C1051   1.409       .  A
C1050      C1055   1.404       .  A
C1050      C2797   1.492       .  S
C1051      C1052   1.408       .  A
C1051      H1056   1.083       .  S
C1052      C1053   1.402       .  A
C1052      C3388   1.489       .  S
C1053      C1054   1.405       .  A
C1053      H1057   1.080       .  S
C1054      C1055   1.405       .  A
C1054      C2833   1.496       .  S
C1055      H1058   1.078       .  S
In1059     O1061   2.209       .  S
In1059     O1062   2.260       .  S
In1059     O1070   2.229       .  S
In1059     O1064   2.244       .  S
In1059     O1066   2.253       .  S
In1059     O1067   2.235       .  S
In1059     O1068   2.223       .  S
In1059     O1071   2.214       .  S
C1060      C4480   1.480       .  S
C1060      O1066   1.270       .  A
C1060      O1068   1.263       .  A
O1061      C1069   1.261       .  A
O1062      C1069   1.270       .  A
C1063      C2785   1.471       .  S
C1063      O1070   1.263       .  A
C1063      O1064   1.269       .  A
C1065      C4720   1.479       .  S
C1065      O1067   1.271       .  A
C1065      O1071   1.266       .  A
C1069      C2773   1.485       .  S
C1072      C1073   1.407       .  A
C1072      C1077   1.405   1_455  A
C1072      C2749   1.503   1_455  S
C1073      C1074   1.407       .  A
C1073      H1078   1.071       .  S
C1074      C1075   1.408       .  A
C1074      C2761   1.507       .  S
C1075      C1076   1.404   1_455  A
C1075      H1079   1.073       .  S
C1076      C1077   1.406       .  A
C1076      C2737   1.503       .  S
C1077      H1080   1.076       .  S
C1081      C1082   1.400       .  A
C1081      C1086   1.407       .  A
C1081      C2713   1.487       .  S
C1082      C1083   1.403       .  A
C1082      H1087   1.079       .  S
C1083      C1084   1.409       .  A
C1083      C2740   1.505       .  S
C1084      C1085   1.407       .  A
C1084      H1088   1.078       .  S
C1085      C1086   1.411       .  A
C1085      C2725   1.496       .  S
C1086      H1089   1.083       .  S
C1090      C1091   1.407       .  A
C1090      C1095   1.404       .  A
C1090      C2701   1.492       .  S
C1091      C1092   1.406       .  A
C1091      H1096   1.083       .  S
C1092      C1093   1.402       .  A
C1092      C2776   1.489       .  S
C1093      C1094   1.407       .  A
C1093      H1097   1.077       .  S
C1094      C1095   1.409       .  A
C1094      C2764   1.503       .  S
C1095      H1098   1.079       .  S
C1099      C1100   1.404       .  A
C1099      C1104   1.408   1_655  A
C1099      C2689   1.490       .  S
C1100      C1101   1.406       .  A
C1100      H1105   1.077       .  S
C1101      C1102   1.406   1_655  A
C1101      C2752   1.503       .  S
C1102      C1103   1.404       .  A
C1102      H1106   1.081       .  S
C1103      C1104   1.409       .  A
C1103      C3352   1.497       .  S
C1104      H1107   1.081       .  S
In1108     O1110   2.220       .  S
In1108     O1111   2.252       .  S
In1108     O1119   2.216       .  S
In1108     O1113   2.249       .  S
In1108     O1115   2.252       .  S
In1108     O1116   2.248       .  S
In1108     O1117   2.222       .  S
In1108     O1120   2.221       .  S
C1109      C4468   1.486       .  S
C1109      O1115   1.270       .  A
C1109      O1117   1.263       .  A
O1110      C1118   1.264       .  A
O1111      C1118   1.270       .  A
C1112      C4132   1.485       .  S
C1112      O1119   1.264       .  A
C1112      O1113   1.271       .  A
C1114      C2677   1.482       .  S
C1114      O1116   1.270       .  A
C1114      O1120   1.263       .  A
C1118      C2728   1.486       .  S
In1121     O1123   2.220       .  S
In1121     O1124   2.253       .  S
In1121     O1132   2.227       .  S
In1121     O1126   2.242       .  S
In1121     O1128   2.244       .  S
In1121     O1129   2.255       .  S
In1121     O1130   2.231       .  S
In1121     O1133   2.217       .  S
C1122      C2641   1.470       .  S
C1122      O1128   1.267       .  A
C1122      O1130   1.262       .  A
O1123      C1131   1.263       .  A
O1124      C1131   1.271       .  A
C1125      C2653   1.469       .  S
C1125      O1132   1.262       .  A
C1125      O1126   1.268       .  A
C1127      C2665   1.486       .  S
C1127      O1129   1.271       .  A
C1127      O1133   1.263       .  A
C1131      C2809   1.487       .  S
C1134      C1135   1.405   1_565  A
C1134      C1139   1.400       .  A
C1134      C3640   1.474       .  S
C1135      C1136   1.405       .  A
C1135      H1140   1.084       .  S
C1136      C1137   1.400       .  A
C1136      C4981   1.474       .  S
C1137      C1138   1.404       .  A
C1137      H1141   1.084       .  S
C1138      C1139   1.404   1_545  A
C1138      C2629   1.488       .  S
C1139      H1142   1.083       .  S
C1143      C1144   1.413       .  A
C1143      C1148   1.403       .  A
C1143      C3724   1.490       .  S
C1144      C1145   1.414       .  A
C1144      H1149   1.082       .  S
C1145      C1146   1.404       .  A
C1145      C2605   1.491       .  S
C1146      C1147   1.393       .  A
C1146      H1150   1.084       .  S
C1147      C1148   1.393       .  A
C1147      C2617   1.465       .  S
C1148      H1151   1.083       .  S
C1152      C1153   1.397   1_645  A
C1152      C1157   1.399       .  A
C1152      C2632   1.469       .  S
C1153      C1154   1.400       .  A
C1153      H1158   1.084       .  S
C1154      C1155   1.401   1_565  A
C1154      C2620   1.480       .  S
C1155      C1156   1.408   1_455  A
C1155      H1159   1.082   1_545  S
C1156      C1157   1.408       .  A
C1156      C2593   1.494       .  S
C1157      H1160   1.080       .  S
C1161      C1162   1.414   1_455  A
C1161      C1166   1.404       .  A
C1161      C2581   1.497       .  S
C1162      C1163   1.415       .  A
C1162      H1167   1.079       .  S
C1163      C1164   1.405       .  A
C1163      C2644   1.498       .  S
C1164      C1165   1.400       .  A
C1164      H1168   1.082       .  S
C1165      C1166   1.399   1_655  A
C1165      C2596   1.493       .  S
C1166      H1169   1.081       .  S
In1170     O1172   2.215       .  S
In1170     O1173   2.257       .  S
In1170     O1181   2.221       .  S
In1170     O1175   2.246       .  S
In1170     O1177   2.244       .  S
In1170     O1178   2.244       .  S
In1170     O1179   2.229       .  S
In1170     O1182   2.214       .  S
C1171      C2584   1.469       .  S
C1171      O1177   1.268       .  A
C1171      O1179   1.262       .  A
O1172      C1180   1.261       .  A
O1173      C1180   1.270       .  A
C1174      C4861   1.484       .  S
C1174      O1181   1.263       .  A
C1174      O1175   1.269       .  A
C1176      C2569   1.483       .  S
C1176      O1178   1.270       .  A
C1176      O1182   1.264       .  A
C1180      C2557   1.486       .  S
C1183      C1184   1.404       .  A
C1183      C1188   1.411       .  A
C1183      C4900   1.493       .  S
C1184      C1185   1.404       .  A
C1184      H1189   1.082       .  S
C1185      C1186   1.404       .  A
C1185      C2545   1.491       .  S
C1186      C1187   1.401       .  A
C1186      H1190   1.083       .  S
C1187      C1188   1.408       .  A
C1187      C2533   1.480       .  S
C1188      H1191   1.083       .  S
C1192      C1193   1.399   1_554  A
C1192      C1197   1.399       .  A
C1192      C2509   1.468       .  S
C1193      C1194   1.399       .  A
C1193      H1198   1.084       .  S
C1194      C1195   1.400       .  A
C1194      C2548   1.470       .  S
C1195      C1196   1.404       .  A
C1195      H1199   1.084       .  S
C1196      C1197   1.404   1_556  A
C1196      C2521   1.482       .  S
C1197      H1200   1.084       .  S
C1201      C1202   1.399       .  A
C1201      C1206   1.405       .  A
C1201      C2500   1.474       .  S
C1202      C1203   1.402       .  A
C1202      H1207   1.083       .  S
C1203      C1204   1.403       .  A
C1203      C2512   1.488       .  S
C1204      C1205   1.404       .  A
C1204      H1208   1.082       .  S
C1205      C1206   1.410       .  A
C1205      C2485   1.490       .  S
C1206      H1209   1.083       .  S
C1210      C1211   1.412       .  A
C1210      C1215   1.404       .  A
C1210      C2473   1.489       .  S
C1211      C1212   1.411   1_556  A
C1211      H1216   1.083       .  S
C1212      C1213   1.402       .  A
C1212      C4372   1.484       .  S
C1213      C1214   1.395   1_554  A
C1213      H1217   1.084       .  S
C1214      C1215   1.395       .  A
C1214      C2524   1.466       .  S
C1215      H1218   1.083       .  S
In1219     O1221   2.213       .  S
In1219     O1222   2.251       .  S
In1219     O1230   2.209       .  S
In1219     O1224   2.250       .  S
In1219     O1226   2.246       .  S
In1219     O1227   2.245       .  S
In1219     O1228   2.213       .  S
In1219     O1231   2.216       .  S
C1220      C3316   1.483       .  S
C1220      O1226   1.271       .  A
C1220      O1228   1.263       .  A
O1221      C1229   1.262       .  A
O1222      C1229   1.271       .  A
C1223      C4552   1.476       .  S
C1223      O1230   1.263       .  A
C1223      O1224   1.270       .  A
C1225      C2476   1.485       .  S
C1225      O1227   1.271       .  A
C1225      O1231   1.264       .  A
C1229      C3184   1.484       .  S
C1232      C1233   1.397   1_655  A
C1232      C1237   1.399       .  A
C1232      C2461   1.462       .  S
C1233      C1234   1.397       .  A
C1233      H1238   1.084       .  S
C1234      C1235   1.400       .  A
C1234      C2449   1.462       .  S
C1235      C1236   1.400       .  A
C1235      H1239   1.084       .  S
C1236      C1237   1.400   1_455  A
C1236      C2437   1.467       .  S
C1237      H1240   1.084       .  S
C1241      C1242   1.403       .  A
C1241      C1246   1.410   1_455  A
C1241      C3112   1.488       .  S
C1242      C1243   1.401   1_455  A
C1242      H1247   1.084       .  S
C1243      C1244   1.401       .  A
C1243      C2440   1.487       .  S
C1244      C1245   1.403       .  A
C1244      H1248   1.082       .  S
C1245      C1246   1.411       .  A
C1245      C2425   1.492       .  S
C1246      H1249   1.083       .  S
C1250      C1251   1.415       .  A
C1250      C1255   1.405       .  A
C1250      C2413   1.497       .  S
C1251      C1252   1.413       .  A
C1251      H1256   1.083       .  S
C1252      C1253   1.402       .  A
C1252      C2668   1.490       .  S
C1253      C1254   1.396       .  A
C1253      H1257   1.084       .  S
C1254      C1255   1.397       .  A
C1254      C2464   1.476       .  S
C1255      H1258   1.082       .  S
C1259      C1260   1.413       .  A
C1259      C1264   1.406       .  A
C1259      C3028   1.495       .  S
C1260      C1261   1.411       .  A
C1260      H1265   1.081       .  S
C1261      C1262   1.402       .  A
C1261      C2572   1.489       .  S
C1262      C1263   1.396       .  A
C1262      H1266   1.084       .  S
C1263      C1264   1.397       .  A
C1263      C2452   1.476       .  S
C1264      H1267   1.082       .  S
In1268     O1270   2.220       .  S
In1268     O1271   2.251       .  S
In1268     O1279   2.217       .  S
In1268     O1273   2.249       .  S
In1268     O1275   2.244       .  S
In1268     O1276   2.242       .  S
In1268     O1277   2.221       .  S
In1268     O1280   2.220       .  S
C1269      C2716   1.467       .  S
C1269      O1275   1.269       .  A
C1269      O1277   1.262       .  A
O1270      C1278   1.263       .  A
O1271      C1278   1.270       .  A
C1272      C3916   1.485       .  S
C1272      O1279   1.263       .  A
C1272      O1273   1.271       .  A
C1274      C4168   1.484       .  S
C1274      O1276   1.271       .  A
C1274      O1280   1.265       .  A
C1278      C2401   1.486       .  S
In1281     O1283   2.221       .  S
In1281     O1284   2.250       .  S
In1281     O1292   2.217       .  S
In1281     O1286   2.251       .  S
In1281     O1288   2.251       .  S
In1281     O1289   2.251       .  S
In1281     O1290   2.218       .  S
In1281     O1293   2.222       .  S
C1282      C3904   1.485       .  S
C1282      O1288   1.270       .  A
C1282      O1290   1.263       .  A
O1283      C1291   1.263       .  A
O1284      C1291   1.271       .  A
C1285      C5137   1.486       .  S
C1285      O1292   1.263       .  A
C1285      O1286   1.271       .  A
C1287      C2389   1.486       .  S
C1287      O1289   1.271       .  A
C1287      O1293   1.263       .  A
C1291      C2428   1.486       .  S
C1294      C1295   1.398       .  A
C1294      C1299   1.397       .  A
C1294      C2353   1.467       .  S
C1295      C1296   1.404       .  A
C1295      H1300   1.084       .  S
C1296      C1297   1.405       .  A
C1296      C2377   1.483       .  S
C1297      C1298   1.405       .  A
C1297      H1301   1.083       .  S
C1298      C1299   1.403       .  A
C1298      C2365   1.485       .  S
C1299      H1302   1.083       .  S
C1303      C1304   1.414       .  A
C1303      C1308   1.405       .  A
C1303      C2341   1.493       .  S
C1304      C1305   1.413       .  A
C1304      H1309   1.081       .  S
C1305      C1306   1.403       .  A
C1305      C2404   1.490       .  S
C1306      C1307   1.394       .  A
C1306      H1310   1.084       .  S
C1307      C1308   1.395       .  A
C1307      C2368   1.467       .  S
C1308      H1311   1.084       .  S
C1312      C1313   1.411       .  A
C1312      C1317   1.402       .  A
C1312      C2329   1.488       .  S
C1313      C1314   1.413       .  A
C1313      H1318   1.083       .  S
C1314      C1315   1.405       .  A
C1314      C2392   1.495       .  S
C1315      C1316   1.401       .  A
C1315      H1319   1.083       .  S
C1316      C1317   1.399       .  A
C1316      C2356   1.485       .  S
C1317      H1320   1.081       .  S
C1321      C1322   1.413       .  A
C1321      C1326   1.405       .  A
C1321      C2317   1.492       .  S
C1322      C1323   1.413       .  A
C1322      H1327   1.081       .  S
C1323      C1324   1.404       .  A
C1323      C3772   1.492       .  S
C1324      C1325   1.394       .  A
C1324      H1328   1.084       .  S
C1325      C1326   1.396       .  A
C1325      C2380   1.467       .  S
C1326      H1329   1.084       .  S
In1330     O1332   2.210       .  S
In1330     O1333   2.247       .  S
In1330     O1341   2.225       .  S
In1330     O1335   2.244       .  S
In1330     O1337   2.243       .  S
In1330     O1338   2.260       .  S
In1330     O1339   2.223       .  S
In1330     O1342   2.216       .  S
C1331      C2896   1.467       .  S
C1331      O1337   1.269       .  A
C1331      O1339   1.262       .  A
O1332      C1340   1.264       .  A
O1333      C1340   1.272       .  A
C1334      C2320   1.486       .  S
C1334      O1341   1.265       .  A
C1334      O1335   1.270       .  A
C1336      C2305   1.485       .  S
C1336      O1338   1.271       .  A
C1336      O1342   1.262       .  A
C1340      C3592   1.484       .  S
In1343     O1345   2.223       .  S
In1343     O1346   2.240       .  S
In1343     O1354   2.229       .  S
In1343     O1348   2.247       .  S
In1343     O1350   2.244       .  S
In1343     O1351   2.255       .  S
In1343     O1352   2.219       .  S
In1343     O1355   2.218       .  S
C1344      C3040   1.482       .  S
C1344      O1350   1.270       .  A
C1344      O1352   1.264       .  A
O1345      C1353   1.263       .  A
O1346      C1353   1.270       .  A
C1347      C2293   1.471       .  S
C1347      O1354   1.261       .  A
C1347      O1348   1.268       .  A
C1349      C2281   1.485       .  S
C1349      O1351   1.270       .  A
C1349      O1355   1.262       .  A
C1353      C2932   1.467       .  S
C1356      C1357   1.402       .  A
C1356      C1361   1.410       .  A
C1356      C2257   1.483       .  S
C1357      C1358   1.396       .  A
C1357      H1362   1.084       .  S
C1358      C1359   1.395       .  A
C1358      C2269   1.465       .  S
C1359      C1360   1.402       .  A
C1359      H1363   1.084       .  S
C1360      C1361   1.411       .  A
C1360      C2245   1.485       .  S
C1361      H1364   1.083       .  S
C1365      C1366   1.401       .  A
C1365      C1370   1.402       .  A
C1365      C2272   1.473       .  S
C1366      C1367   1.397       .  A
C1366      H1371   1.084       .  S
C1367      C1368   1.398       .  A
C1367      C2233   1.464       .  S
C1368      C1369   1.398       .  A
C1368      H1372   1.084       .  S
C1369      C1370   1.401       .  A
C1369      C2221   1.466       .  S
C1370      H1373   1.084       .  S
C1374      C1375   1.415       .  A
C1374      C1379   1.406       .  A
C1374      C2296   1.499       .  S
C1375      C1376   1.411       .  A
C1375      H1380   1.083       .  S
C1376      C1377   1.399       .  A
C1376      C2308   1.479       .  S
C1377      C1378   1.397       .  A
C1377      H1381   1.084       .  S
C1378      C1379   1.398       .  A
C1378      C2224   1.475       .  S
C1379      H1382   1.081       .  S
C1383      C1384   1.407       .  A
C1383      C1388   1.414       .  A
C1383      C3748   1.498       .  S
C1384      C1385   1.400       .  A
C1384      H1389   1.082       .  S
C1385      C1386   1.398       .  A
C1385      C2236   1.481       .  S
C1386      C1387   1.398       .  A
C1386      H1390   1.084       .  S
C1387      C1388   1.407       .  A
C1387      C2212   1.475       .  S
C1388      H1391   1.082       .  S
In1392     O1394   2.215       .  S
In1392     O1395   2.254       .  S
In1392     O1403   2.217       .  S
In1392     O1397   2.255       .  S
In1392     O1399   2.246       .  S
In1392     O1400   2.239       .  S
In1392     O1401   2.217       .  S
In1392     O1404   2.221       .  S
C1393      C2497   1.475       .  S
C1393      O1399   1.271       .  A
C1393      O1401   1.264       .  A
O1394      C1402   1.262       .  A
O1395      C1402   1.270       .  A
C1396      C2197   1.486       .  S
C1396      O1403   1.262       .  A
C1396      O1397   1.271       .  A
C1398      C4780   1.468       .  S
C1398      O1400   1.270       .  A
C1398      O1404   1.264       .  A
C1402      C2260   1.484       .  S
In1405     O1407   2.221       .  S
In1405     O1408   2.243       .  S
In1405     O1416   2.217       .  S
In1405     O1410   2.247       .  S
In1405     O1412   2.250       .  S
In1405     O1413   2.244       .  S
In1405     O1414   2.212       .  S
In1405     O1417   2.217       .  S
C1406      C2248   1.484       .  S
C1406      O1412   1.271       .  A
C1406      O1414   1.263       .  A
O1407      C1415   1.264       .  A
O1408      C1415   1.270       .  A
C1409      C4276   1.485       .  S
C1409      O1416   1.263       .  A
C1409      O1410   1.271       .  A
C1411      C2185   1.484       .  S
C1411      O1413   1.270       .  A
C1411      O1417   1.264       .  A
C1415      C2173   1.484       .  S
C1418      C1419   1.403       .  A
C1418      C1423   1.412       .  A
C1418      C2188   1.489       .  S
C1419      C1420   1.394       .  A
C1419      H1424   1.084       .  S
C1420      C1421   1.394   1_554  A
C1420      C2161   1.465       .  S
C1421      C1422   1.404       .  A
C1421      H1425   1.084       .  S
C1422      C1423   1.413   1_556  A
C1422      C2149   1.491       .  S
C1423      H1426   1.081       .  S
C1427      C1428   1.410       .  A
C1427      C1432   1.399       .  A
C1427      C3988   1.477       .  S
C1428      C1429   1.416       .  A
C1428      H1433   1.082       .  S
C1429      C1430   1.407       .  A
C1429      C4048   1.497       .  S
C1430      C1431   1.395       .  A
C1430      H1434   1.083       .  S
C1431      C1432   1.394       .  A
C1431      C2137   1.467       .  S
C1432      H1435   1.085       .  S
C1436      C1437   1.404   1_554  A
C1436      C1441   1.402       .  A
C1436      C2164   1.481       .  S
C1437      C1438   1.405       .  A
C1437      H1442   1.083       .  S
C1438      C1439   1.404       .  A
C1438      C2140   1.484       .  S
C1439      C1440   1.398   1_556  A
C1439      H1443   1.083       .  S
C1440      C1441   1.396       .  A
C1440      C2125   1.466       .  S
C1441      H1444   1.084       .  S
C1445      C1446   1.412       .  A
C1445      C1450   1.405       .  A
C1445      C2200   1.494       .  S
C1446      C1447   1.409       .  A
C1446      H1451   1.082       .  S
C1447      C1448   1.401       .  A
C1447      C3340   1.483       .  S
C1448      C1449   1.399       .  A
C1448      H1452   1.083       .  S
C1449      C1450   1.401       .  A
C1449      C2128   1.484       .  S
C1450      H1453   1.084       .  S
C1454      C1455   1.400       .  A
C1454      C1459   1.400       .  A
C1454      C2089   1.469       .  S
C1455      C1456   1.399       .  A
C1455      H1460   1.084       .  S
C1456      C1457   1.399       .  A
C1456      C2101   1.465       .  S
C1457      C1458   1.400       .  A
C1457      H1461   1.084       .  S
C1458      C1459   1.400       .  A
C1458      C2113   1.468       .  S
C1459      H1462   1.084       .  S
C1463      C1464   1.411       .  A
C1463      C1468   1.403       .  A
C1463      C2077   1.490       .  S
C1464      C1465   1.411       .  A
C1464      H1469   1.082       .  S
C1465      C1466   1.403       .  A
C1465      C3376   1.489       .  S
C1466      C1467   1.399       .  A
C1466      H1470   1.084       .  S
C1467      C1468   1.399       .  A
C1467      C2104   1.479       .  S
C1468      H1471   1.084       .  S
C1472      C1473   1.406       .  A
C1472      C1477   1.400       .  A
C1472      C3700   1.476       .  S
C1473      C1474   1.409       .  A
C1473      H1478   1.083       .  S
C1474      C1475   1.404       .  A
C1474      C4624   1.489       .  S
C1475      C1476   1.403       .  A
C1475      H1479   1.082       .  S
C1476      C1477   1.403       .  A
C1476      C2116   1.489       .  S
C1477      H1480   1.083       .  S
C1481      C1482   1.409       .  A
C1481      C1486   1.404       .  A
C1481      C2284   1.488       .  S
C1482      C1483   1.407       .  A
C1482      H1487   1.083       .  S
C1483      C1484   1.402       .  A
C1483      C2176   1.484       .  S
C1484      C1485   1.403       .  A
C1484      H1488   1.082       .  S
C1485      C1486   1.404       .  A
C1485      C2092   1.492       .  S
C1486      H1489   1.083       .  S
In1490     O1492   2.214       .  S
In1490     O1493   2.252       .  S
In1490     O1501   2.223       .  S
In1490     O1495   2.245       .  S
In1490     O1497   2.244       .  S
In1490     O1498   2.238       .  S
In1490     O1499   2.224       .  S
In1490     O1502   2.217       .  S
C1491      C4672   1.468       .  S
C1491      O1497   1.268       .  A
C1491      O1499   1.262       .  A
O1492      C1500   1.262       .  A
O1493      C1500   1.270       .  A
C1494      C4240   1.484       .  S
C1494      O1501   1.263       .  A
C1494      O1495   1.269       .  A
C1496      C2152   1.483       .  S
C1496      O1498   1.270       .  A
C1496      O1502   1.265       .  A
C1500      C2065   1.483       .  S
In1503     O1505   2.222       .  S
In1503     O1506   2.255       .  S
In1503     O1514   2.211       .  S
In1503     O1508   2.247       .  S
In1503     O1510   2.253       .  S
In1503     O1511   2.262       .  S
In1503     O1512   2.214       .  S
In1503     O1515   2.218       .  S
C1504      C5188   1.473       .  S
C1504      O1510   1.270       .  A
C1504      O1512   1.263       .  A
O1505      C1513   1.264       .  A
O1506      C1513   1.271       .  A
C1507      C3808   1.484       .  S
C1507      O1514   1.264       .  A
C1507      O1508   1.271       .  A
C1509      C2053   1.484       .  S
C1509      O1511   1.271       .  A
C1509      O1515   1.262       .  A
C1513      C2536   1.477       .  S
In1516     O1518   2.223       .  S
In1516     O1519   2.250       .  S
In1516     O1527   2.223       .  S
In1516     O1521   2.261       .  S
In1516     O1523   2.251       .  S
In1516     O1524   2.243       .  S
In1516     O1525   2.217       .  S
In1516     O1528   2.229       .  S
C1517      C4201   1.486       .  S
C1517      O1523   1.271       .  A
C1517      O1525   1.263       .  A
O1518      C1526   1.263       .  A
O1519      C1526   1.269       .  A
C1520      C2041   1.488       .  S
C1520      O1527   1.262       .  A
C1520      O1521   1.270       .  A
C1522      C3820   1.472       .  S
C1522      O1524   1.268       .  A
C1522      O1528   1.262       .  A
C1526      C4228   1.485       .  S
C1529      C1530   1.414       .  A
C1529      C1534   1.405       .  A
C1529      C2044   1.494       .  S
C1530      C1531   1.410       .  A
C1530      H1535   1.083       .  S
C1531      C1532   1.400       .  A
C1531      C2056   1.479       .  S
C1532      C1533   1.396       .  A
C1532      H1536   1.084       .  S
C1533      C1534   1.397       .  A
C1533      C2029   1.468       .  S
C1534      H1537   1.084       .  S
C1538      C1539   1.417       .  A
C1538      C1543   1.406       .  A
C1538      C2005   1.499       .  S
C1539      C1540   1.411       .  A
C1539      H1544   1.083       .  S
C1540      C1541   1.400       .  A
C1540      C3148   1.478       .  S
C1541      C1542   1.394       .  A
C1541      H1545   1.085       .  S
C1542      C1543   1.395       .  A
C1542      C2017   1.469       .  S
C1543      H1546   1.081       .  S
C1547      C1548   1.403       .  A
C1547      C1552   1.399       .  A
C1547      C2032   1.476       .  S
C1548      C1549   1.410       .  A
C1548      H1553   1.083       .  S
C1549      C1550   1.405       .  A
C1549      C2020   1.491       .  S
C1550      C1551   1.398       .  A
C1550      H1554   1.082       .  S
C1551      C1552   1.397       .  A
C1551      C1993   1.468       .  S
C1552      H1555   1.084       .  S
C1556      C1557   1.400       .  A
C1556      C1561   1.408       .  A
C1556      C3004   1.476       .  S
C1557      C1558   1.397       .  A
C1557      H1562   1.084       .  S
C1558      C1559   1.396       .  A
C1558      C1996   1.468       .  S
C1559      C1560   1.403       .  A
C1559      H1563   1.084       .  S
C1560      C1561   1.411       .  A
C1560      C2068   1.488       .  S
C1561      H1564   1.083       .  S
In1565     O1567   2.223       .  S
In1565     O1568   2.244       .  S
In1565     O1576   2.226       .  S
In1565     O1570   2.240       .  S
In1565     O1572   2.250       .  S
In1565     O1573   2.243       .  S
In1565     O1574   2.221       .  S
In1565     O1577   2.215       .  S
C1566      C2332   1.468       .  S
C1566      O1572   1.269       .  A
C1566      O1574   1.261       .  A
O1567      C1575   1.262       .  A
O1568      C1575   1.269       .  A
C1569      C2008   1.470       .  S
C1569      O1576   1.264       .  A
C1569      O1570   1.270       .  A
C1571      C1981   1.483       .  S
C1571      O1573   1.271       .  A
C1571      O1577   1.264       .  A
C1575      C5176   1.469       .  S
In1578     O1580   2.216       .  S
In1578     O1581   2.249       .  S
In1578     O1589   2.215       .  S
In1578     O1583   2.250       .  S
In1578     O1585   2.250       .  S
In1578     O1586   2.245       .  S
In1578     O1587   2.217       .  S
In1578     O1590   2.223       .  S
C1579      C2080   1.485       .  S
C1579      O1585   1.270       .  A
C1579      O1587   1.264       .  A
O1580      C1588   1.264       .  A
O1581      C1588   1.270       .  A
C1582      C1969   1.483       .  S
C1582      O1589   1.262       .  A
C1582      O1583   1.270       .  A
C1584      C2608   1.485       .  S
C1584      O1586   1.269       .  A
C1584      O1590   1.263       .  A
C1588      C2704   1.484       .  S
C1591      C1592   1.417       .  A
C1591      C1596   1.406       .  A
C1591      C2788   1.502       .  S
C1592      C1593   1.413       .  A
C1592      H1597   1.082       .  S
C1593      C1594   1.402       .  A
C1593      C2992   1.494       .  S
C1594      C1595   1.399       .  A
C1594      H1598   1.081       .  S
C1595      C1596   1.401       .  A
C1595      C1957   1.493       .  S
C1596      H1599   1.081       .  S
C1600      C1601   1.399       .  A
C1600      C1605   1.398       .  A
C1600      C1933   1.471       .  S
C1601      C1602   1.406   1_545  A
C1601      H1606   1.082       .  S
C1602      C1603   1.406       .  A
C1602      C1960   1.494       .  S
C1603      C1604   1.403   1_565  A
C1603      H1607   1.081       .  S
C1604      C1605   1.400       .  A
C1604      C1948   1.480       .  S
C1605      H1608   1.084       .  S
C1609      C1610   1.401       .  A
C1609      C1614   1.410       .  A
C1609      C1921   1.483       .  S
C1610      C1611   1.395       .  A
C1610      H1615   1.084       .  S
C1611      C1612   1.394       .  A
C1611      C1936   1.463       .  S
C1612      C1613   1.402       .  A
C1612      H1616   1.084       .  S
C1613      C1614   1.411       .  A
C1613      C1909   1.486       .  S
C1614      H1617   1.083       .  S
C1618      C1619   1.410   1_565  A
C1618      C1623   1.400       .  A
C1618      C1972   1.482       .  S
C1619      C1620   1.413       .  A
C1619      H1624   1.083       .  S
C1620      C1621   1.404       .  A
C1620      C2560   1.489       .  S
C1621      C1622   1.396       .  A
C1621      H1625   1.083       .  S
C1622      C1623   1.394   1_545  A
C1622      C1945   1.465       .  S
C1623      H1626   1.084       .  S
In1627     O1629   2.214       .  S
In1627     O1630   2.253       .  S
In1627     O1638   2.215       .  S
In1627     O1632   2.247       .  S
In1627     O1634   2.247       .  S
In1627     O1635   2.248       .  S
In1627     O1636   2.222       .  S
In1627     O1639   2.220       .  S
C1628      C4057   1.485       .  S
C1628      O1634   1.269       .  A
C1628      O1636   1.264       .  A
O1629      C1637   1.263       .  A
O1630      C1637   1.270       .  A
C1631      C2848   1.483       .  S
C1631      O1638   1.263       .  A
C1631      O1632   1.270       .  A
C1633      C1885   1.485       .  S
C1633      O1635   1.270       .  A
C1633      O1639   1.263       .  A
C1637      C1897   1.485       .  S
C1640      C1641   1.413       .  A
C1640      C1645   1.405       .  A
C1640      C3760   1.489       .  S
C1641      C1642   1.411       .  A
C1641      H1646   1.083       .  S
C1642      C1643   1.401       .  A
C1642      C1984   1.487       .  S
C1643      C1644   1.393       .  A
C1643      H1647   1.084       .  S
C1644      C1645   1.396       .  A
C1644      C1873   1.466       .  S
C1645      H1648   1.084       .  S
C1649      C1650   1.406       .  A
C1649      C1654   1.407       .  A
C1649      C1861   1.497       .  S
C1650      C1651   1.402       .  A
C1650      H1655   1.080       .  S
C1651      C1652   1.401       .  A
C1651      C1876   1.482       .  S
C1652      C1653   1.401       .  A
C1652      H1656   1.082       .  S
C1653      C1654   1.403       .  A
C1653      C1849   1.483       .  S
C1654      H1657   1.082       .  S
C1658      C1659   1.414       .  A
C1658      C1663   1.405       .  A
C1658      C1837   1.493       .  S
C1659      C1660   1.412       .  A
C1659      H1664   1.081       .  S
C1660      C1661   1.403       .  A
C1660      C1888   1.488       .  S
C1661      C1662   1.395       .  A
C1661      H1665   1.084       .  S
C1662      C1663   1.394       .  A
C1662      C1852   1.467       .  S
C1663      H1666   1.084       .  S
C1667      C1668   1.406       .  A
C1667      C1672   1.403       .  A
C1667      C1825   1.486       .  S
C1668      C1669   1.405       .  A
C1668      H1673   1.084       .  S
C1669      C1670   1.400       .  A
C1669      C3136   1.482       .  S
C1670      C1671   1.407       .  A
C1670      H1674   1.082       .  S
C1671      C1672   1.407       .  A
C1671      C1864   1.496       .  S
C1672      H1675   1.080       .  S
In1676     O1678   2.215       .  S
In1676     O1679   2.248       .  S
In1676     O1687   2.219       .  S
In1676     O1681   2.244       .  S
In1676     O1683   2.241       .  S
In1676     O1684   2.248       .  S
In1676     O1685   2.216       .  S
In1676     O1688   2.214       .  S
C1677      C4852   1.465       .  S
C1677      O1683   1.269       .  A
C1677      O1685   1.262       .  A
O1678      C1686   1.263       .  A
O1679      C1686   1.271       .  A
C1680      C1840   1.484       .  S
C1680      O1687   1.264       .  A
C1680      O1681   1.270       .  A
C1682      C1924   1.484       .  S
C1682      O1684   1.270       .  A
C1682      O1688   1.264       .  A
C1686      C4084   1.485       .  S
In1689     O1691   2.216       .  S
In1689     O1692   2.248       .  S
In1689     O1700   2.211       .  S
In1689     O1694   2.252       .  S
In1689     O1696   2.249       .  S
In1689     O1697   2.250       .  S
In1689     O1698   2.214       .  S
In1689     O1701   2.220       .  S
C1690      C1912   1.484       .  S
C1690      O1696   1.271       .  A
C1690      O1698   1.263       .  A
O1691      C1699   1.265       .  A
O1692      C1699   1.271       .  A
C1693      C3172   1.475       .  S
C1693      O1700   1.263       .  A
C1693      O1694   1.270       .  A
C1695      C3268   1.484       .  S
C1695      O1697   1.270       .  A
C1695      O1701   1.263       .  A
C1699      C1828   1.484       .  S
In1702     O1704   2.218       .  S
In1702     O1705   2.251       .  S
In1702     O1713   2.218       .  S
In1702     O1707   2.253       .  S
In1702     O1709   2.246       .  S
In1702     O1710   2.249       .  S
In1702     O1711   2.216       .  S
In1702     O1714   2.224       .  S
C1703      C3604   1.483       .  S
C1703      O1709   1.270       .  A
C1703      O1711   1.262       .  A
O1704      C1712   1.263       .  A
O1705      C1712   1.270       .  A
C1706      C2692   1.486       .  S
C1706      O1713   1.264       .  A
C1706      O1707   1.269       .  A
C1708      C2344   1.486       .  S
C1708      O1710   1.270       .  A
C1708      O1714   1.264       .  A
C1712      C3472   1.485       .  S
In1715     O1717   2.211       .  S
In1715     O1718   2.254       .  S
In1715     O1726   2.219       .  S
In1715     O1720   2.242       .  S
In1715     O1722   2.254       .  S
In1715     O1723   2.255       .  S
In1715     O1724   2.214       .  S
In1715     O1727   2.213       .  S
C1716      C2800   1.486       .  S
C1716      O1722   1.270       .  A
C1716      O1724   1.263       .  A
O1717      C1725   1.263       .  A
O1718      C1725   1.271       .  A
C1719      C2488   1.484       .  S
C1719      O1726   1.264       .  A
C1719      O1720   1.271       .  A
C1721      C2209   1.476       .  S
C1721      O1723   1.270       .  A
C1721      O1727   1.263       .  A
C1725      C3793   1.485       .  S
In1728     O1730   2.218       .  S
In1728     O1731   2.257       .  S
In1728     O1739   2.221       .  S
In1728     O1733   2.239       .  S
In1728     O1735   2.257       .  S
In1728     O1736   2.248       .  S
In1728     O1737   2.218       .  S
In1728     O1740   2.225       .  S
C1729      C5128   1.485       .  S
C1729      O1735   1.269       .  A
C1729      O1737   1.261       .  A
O1730      C1738   1.262       .  A
O1731      C1738   1.270       .  A
C1732      C1816   1.485       .  S
C1732      O1739   1.265       .  A
C1732      O1733   1.271       .  A
C1734      C2416   1.470       .  S
C1734      O1736   1.269       .  A
C1734      O1740   1.262       .  A
C1738      C4417   1.477       .  S
C1741      C1742   1.402       .  A
C1741      C1746   1.410       .  A
C1741      C2656   1.495       .  S
C1742      C1743   1.403       .  A
C1742      H1747   1.081       .  S
C1743      C1744   1.403       .  A
C1743      C1804   1.494       .  S
C1744      C1745   1.403       .  A
C1744      H1748   1.079       .  S
C1745      C1746   1.410       .  A
C1745      C1900   1.486       .  S
C1746      H1749   1.083       .  S
C1750      C1751   1.408   1_565  A
C1750      C1755   1.400       .  A
C1750      C2680   1.477       .  S
C1751      C1752   1.411       .  A
C1751      H1756   1.083       .  S
C1752      C1753   1.404       .  A
C1752      C1813   1.489       .  S
C1753      C1754   1.397       .  A
C1753      H1757   1.083       .  S
C1754      C1755   1.396   1_545  A
C1754      C1789   1.469       .  S
C1755      H1758   1.084       .  S
C1759      C1760   1.404       .  A
C1759      C1764   1.403   1_545  A
C1759      C1792   1.486       .  S
C1760      C1761   1.407       .  A
C1760      H1765   1.080       .  S
C1761      C1762   1.404   1_545  A
C1761      C1801   1.495       .  S
C1762      C1763   1.399       .  A
C1762      H1766   1.082       .  S
C1763      C1764   1.401       .  A
C1763      C1777   1.476       .  S
C1764      H1767   1.083       .  S
C1768      C1769   1.417       .  A
C1768      C1773   1.408       .  A
C1768      C2884   1.502       .  S
C1769      C1770   1.411       .  A
C1769      H1774   1.081       .  S
C1770      C1771   1.398       .  A
C1770      C2872   1.479       .  S
C1771      C1772   1.392       .  A
C1771      H1775   1.085       .  S
C1772      C1773   1.394       .  A
C1772      C1780   1.464       .  S
C1773      H1776   1.083       .  S
C1777      C1778   1.403       .  A
C1777      C1782   1.413       .  A
C1778      C1779   1.397       .  A
C1778      H1783   1.083       .  S
C1779      C1780   1.405       .  A
C1779      O1784   1.372       .  S
C1780      C1781   1.397       .  A
C1781      C1782   1.396       .  A
C1781      H1785   1.084       .  S
C1782      O1786   1.372       .  S
O1784      H1788   0.992       .  S
O1786      H1787   0.992       .  S
C1789      C1790   1.398       .  A
C1789      C1794   1.405   1_545  A
C1790      C1791   1.396       .  A
C1790      H1795   1.084       .  S
C1791      C1792   1.415       .  A
C1791      O1796   1.372       .  S
C1792      C1793   1.407   1_545  A
C1793      C1794   1.398       .  A
C1793      H1797   1.083       .  S
C1794      O1798   1.372       .  S
O1796      H1800   0.992   1_545  S
O1798      H1799   0.992       .  S
C1801      C1802   1.409       .  A
C1801      C1806   1.412       .  A
C1802      C1803   1.400       .  A
C1802      H1807   1.082       .  S
C1803      C1804   1.412       .  A
C1803      O1808   1.373       .  S
C1804      C1805   1.407       .  A
C1805      C1806   1.396       .  A
C1805      H1809   1.082       .  S
C1806      O1810   1.373       .  S
O1808      H1812   0.992       .  S
O1810      H1811   0.992       .  S
C1813      C1814   1.403       .  A
C1813      C1818   1.412       .  A
C1814      C1815   1.402       .  A
C1814      H1819   1.083       .  S
C1815      C1816   1.414       .  A
C1815      O1820   1.371       .  S
C1816      C1817   1.403       .  A
C1817      C1818   1.402       .  A
C1817      H1821   1.083       .  S
C1818      O1822   1.373       .  S
O1820      H1824   0.992       .  S
O1822      H1823   0.992       .  S
C1825      C1826   1.407       .  A
C1825      C1830   1.408       .  A
C1826      C1827   1.402       .  A
C1826      H1831   1.083       .  S
C1827      C1828   1.410       .  A
C1827      O1832   1.371       .  S
C1828      C1829   1.407       .  A
C1829      C1830   1.399       .  A
C1829      H1833   1.083       .  S
C1830      O1834   1.372       .  S
O1832      H1836   0.992       .  S
O1834      H1835   0.992       .  S
C1837      C1838   1.410       .  A
C1837      C1842   1.410       .  A
C1838      C1839   1.399       .  A
C1838      H1843   1.083       .  S
C1839      C1840   1.408       .  A
C1839      O1844   1.372       .  S
C1840      C1841   1.407       .  A
C1841      C1842   1.403       .  A
C1841      H1845   1.083       .  S
C1842      O1846   1.372       .  S
O1844      H1848   0.992       .  S
O1846      H1847   0.992       .  S
C1849      C1850   1.407       .  A
C1849      C1854   1.412       .  A
C1850      C1851   1.395       .  A
C1850      H1855   1.083       .  S
C1851      C1852   1.403       .  A
C1851      O1856   1.372       .  S
C1852      C1853   1.400       .  A
C1853      C1854   1.398       .  A
C1853      H1857   1.084       .  S
C1854      O1858   1.371       .  S
O1856      H1860   0.992       .  S
O1858      H1859   0.992       .  S
C1861      C1862   1.408       .  A
C1861      C1866   1.414       .  A
C1862      C1863   1.399       .  A
C1862      H1867   1.082       .  S
C1863      C1864   1.413       .  A
C1863      O1868   1.373       .  S
C1864      C1865   1.407       .  A
C1865      C1866   1.399       .  A
C1865      H1869   1.082       .  S
C1866      O1870   1.373       .  S
O1868      H1872   0.992       .  S
O1870      H1871   0.992       .  S
C1873      C1874   1.398       .  A
C1873      C1878   1.404       .  A
C1874      C1875   1.395       .  A
C1874      H1879   1.084       .  S
C1875      C1876   1.414       .  A
C1875      O1880   1.372       .  S
C1876      C1877   1.406       .  A
C1877      C1878   1.398       .  A
C1877      H1881   1.083       .  S
C1878      O1882   1.372       .  S
O1880      H1884   0.992       .  S
O1882      H1883   0.992       .  S
C1885      C1886   1.408       .  A
C1885      C1890   1.409       .  A
C1886      C1887   1.401       .  A
C1886      H1891   1.083       .  S
C1887      C1888   1.408       .  A
C1887      O1892   1.371       .  S
C1888      C1889   1.408       .  A
C1889      C1890   1.400       .  A
C1889      H1893   1.084       .  S
C1890      O1894   1.371       .  S
O1892      H1896   0.992       .  S
O1894      H1895   0.992       .  S
C1897      C1898   1.404       .  A
C1897      C1902   1.414       .  A
C1898      C1899   1.402       .  A
C1898      H1903   1.083       .  S
C1899      C1900   1.412       .  A
C1899      O1904   1.371       .  S
C1900      C1901   1.402       .  A
C1901      C1902   1.400       .  A
C1901      H1905   1.084       .  S
C1902      O1906   1.372       .  S
O1904      H1908   0.992       .  S
O1906      H1907   0.992       .  S
C1909      C1910   1.402       .  A
C1909      C1914   1.413       .  A
C1910      C1911   1.400       .  A
C1910      H1915   1.084       .  S
C1911      C1912   1.415       .  A
C1911      O1916   1.372       .  S
C1912      C1913   1.403       .  A
C1913      C1914   1.400       .  A
C1913      H1917   1.083       .  S
C1914      O1918   1.372       .  S
O1916      H1920   0.992       .  S
O1918      H1919   0.992       .  S
C1921      C1922   1.406       .  A
C1921      C1926   1.407       .  A
C1922      C1923   1.401       .  A
C1922      H1927   1.084       .  S
C1923      C1924   1.409       .  A
C1923      O1928   1.371       .  S
C1924      C1925   1.408       .  A
C1925      C1926   1.399       .  A
C1925      H1929   1.083       .  S
C1926      O1930   1.372       .  S
O1928      H1932   0.992       .  S
O1930      H1931   0.992       .  S
C1933      C1934   1.404       .  A
C1933      C1938   1.407       .  A
C1934      C1935   1.395       .  A
C1934      H1939   1.084       .  S
C1935      C1936   1.403       .  A
C1935      O1940   1.372       .  S
C1936      C1937   1.401       .  A
C1937      C1938   1.397       .  A
C1937      H1941   1.084       .  S
C1938      O1942   1.371       .  S
O1940      H1944   0.992       .  S
O1942      H1943   0.992       .  S
C1945      C1946   1.398   1_545  A
C1945      C1950   1.404       .  A
C1946      C1947   1.394       .  A
C1946      H1951   1.084       .  S
C1947      C1948   1.413   1_565  A
C1947      O1952   1.372       .  S
C1948      C1949   1.406       .  A
C1949      C1950   1.398       .  A
C1949      H1953   1.083       .  S
C1950      O1954   1.371       .  S
O1952      H1956   0.992   1_565  S
O1954      H1955   0.992   1_545  S
C1957      C1958   1.406       .  A
C1957      C1962   1.413       .  A
C1958      C1959   1.398       .  A
C1958      H1963   1.082       .  S
C1959      C1960   1.414       .  A
C1959      O1964   1.373       .  S
C1960      C1961   1.407       .  A
C1961      C1962   1.395       .  A
C1961      H1965   1.082       .  S
C1962      O1966   1.370       .  S
O1964      H1968   0.992       .  S
O1966      H1967   0.992       .  S
C1969      C1970   1.403       .  A
C1969      C1974   1.415       .  A
C1970      C1971   1.400       .  A
C1970      H1975   1.083       .  S
C1971      C1972   1.411       .  A
C1971      O1976   1.372       .  S
C1972      C1973   1.401       .  A
C1973      C1974   1.401       .  A
C1973      H1977   1.084       .  S
C1974      O1978   1.372       .  S
O1976      H1980   0.992       .  S
O1978      H1979   0.992       .  S
C1981      C1982   1.402       .  A
C1981      C1986   1.415       .  A
C1982      C1983   1.399       .  A
C1982      H1987   1.083       .  S
C1983      C1984   1.413       .  A
C1983      O1988   1.372       .  S
C1984      C1985   1.402       .  A
C1985      C1986   1.401       .  A
C1985      H1989   1.083       .  S
C1986      O1990   1.372       .  S
O1988      H1992   0.992       .  S
O1990      H1991   0.992       .  S
C1993      C1994   1.400       .  A
C1993      C1998   1.407       .  A
C1994      C1995   1.397       .  A
C1994      H1999   1.084       .  S
C1995      C1996   1.407       .  A
C1995      O2000   1.372       .  S
C1996      C1997   1.400       .  A
C1997      C1998   1.397       .  A
C1997      H2001   1.084       .  S
C1998      O2002   1.372       .  S
O2000      H2004   0.992       .  S
O2002      H2003   0.992       .  S
C2005      C2006   1.410       .  A
C2005      C2010   1.419       .  A
C2006      C2007   1.404       .  A
C2006      H2011   1.083       .  S
C2007      C2008   1.406       .  A
C2007      O2012   1.372       .  S
C2008      C2009   1.396       .  A
C2009      C2010   1.400       .  A
C2009      H2013   1.084       .  S
C2010      O2014   1.374       .  S
O2012      H2016   0.992       .  S
O2014      H2015   0.993       .  S
C2017      C2018   1.398       .  A
C2017      C2022   1.404       .  A
C2018      C2019   1.399       .  A
C2018      H2023   1.084       .  S
C2019      C2020   1.418       .  A
C2019      O2024   1.371       .  S
C2020      C2021   1.407       .  A
C2021      C2022   1.395       .  A
C2021      H2025   1.083       .  S
C2022      O2026   1.372       .  S
O2024      H2028   0.992       .  S
O2026      H2027   0.992       .  S
C2029      C2030   1.399       .  A
C2029      C2034   1.406       .  A
C2030      C2031   1.397       .  A
C2030      H2035   1.084       .  S
C2031      C2032   1.410       .  A
C2031      O2036   1.372       .  S
C2032      C2033   1.403       .  A
C2033      C2034   1.399       .  A
C2033      H2037   1.084       .  S
C2034      O2038   1.372       .  S
O2036      H2040   0.992       .  S
O2038      H2039   0.992       .  S
C2041      C2042   1.408       .  A
C2041      C2046   1.409       .  A
C2042      C2043   1.402       .  A
C2042      H2047   1.083       .  S
C2043      C2044   1.410       .  A
C2043      O2048   1.372       .  S
C2044      C2045   1.409       .  A
C2045      C2046   1.403       .  A
C2045      H2049   1.083       .  S
C2046      O2050   1.371       .  S
O2048      H2052   0.992       .  S
O2050      H2051   0.992       .  S
C2053      C2054   1.407       .  A
C2053      C2058   1.410       .  A
C2054      C2055   1.400       .  A
C2054      H2059   1.084       .  S
C2055      C2056   1.405       .  A
C2055      O2060   1.372       .  S
C2056      C2057   1.405       .  A
C2057      C2058   1.405       .  A
C2057      H2061   1.084       .  S
C2058      O2062   1.371       .  S
O2060      H2064   0.992       .  S
O2062      H2063   0.992       .  S
C2065      C2066   1.408       .  A
C2065      C2070   1.408       .  A
C2066      C2067   1.400       .  A
C2066      H2071   1.083       .  S
C2067      C2068   1.409       .  A
C2067      O2072   1.372       .  S
C2068      C2069   1.408       .  A
C2069      C2070   1.400       .  A
C2069      H2073   1.084       .  S
C2070      O2074   1.371       .  S
O2072      H2076   0.992       .  S
O2074      H2075   0.992       .  S
C2077      C2078   1.408       .  A
C2077      C2082   1.409       .  A
C2078      C2079   1.401       .  A
C2078      H2083   1.084       .  S
C2079      C2080   1.409       .  A
C2079      O2084   1.371       .  S
C2080      C2081   1.408       .  A
C2081      C2082   1.400       .  A
C2081      H2085   1.083       .  S
C2082      O2086   1.371       .  S
O2084      H2088   0.992       .  S
O2086      H2087   0.992       .  S
C2089      C2090   1.398       .  A
C2089      C2094   1.403       .  A
C2090      C2091   1.397       .  A
C2090      H2095   1.084       .  S
C2091      C2092   1.417       .  A
C2091      O2096   1.371       .  S
C2092      C2093   1.410       .  A
C2093      C2094   1.397       .  A
C2093      H2097   1.083       .  S
C2094      O2098   1.372       .  S
O2096      H2100   0.992       .  S
O2098      H2099   0.992       .  S
C2101      C2102   1.399       .  A
C2101      C2106   1.403       .  A
C2102      C2103   1.397       .  A
C2102      H2107   1.084       .  S
C2103      C2104   1.411       .  A
C2103      O2108   1.372       .  S
C2104      C2105   1.405       .  A
C2105      C2106   1.397       .  A
C2105      H2109   1.084       .  S
C2106      O2110   1.372       .  S
O2108      H2112   0.992       .  S
O2110      H2111   0.992       .  S
C2113      C2114   1.398       .  A
C2113      C2118   1.403       .  A
C2114      C2115   1.396       .  A
C2114      H2119   1.084       .  S
C2115      C2116   1.416       .  A
C2115      O2120   1.371       .  S
C2116      C2117   1.409       .  A
C2117      C2118   1.398       .  A
C2117      H2121   1.083       .  S
C2118      O2122   1.372       .  S
O2120      H2124   0.992       .  S
O2122      H2123   0.992       .  S
C2125      C2126   1.399       .  A
C2125      C2130   1.403       .  A
C2126      C2127   1.398       .  A
C2126      H2131   1.084       .  S
C2127      C2128   1.413       .  A
C2127      O2132   1.372       .  S
C2128      C2129   1.407       .  A
C2129      C2130   1.396       .  A
C2129      H2133   1.083       .  S
C2130      O2134   1.372       .  S
O2132      H2136   0.992       .  S
O2134      H2135   0.992       .  S
C2137      C2138   1.399       .  A
C2137      C2142   1.403       .  A
C2138      C2139   1.396       .  A
C2138      H2143   1.084       .  S
C2139      C2140   1.412       .  A
C2139      O2144   1.372       .  S
C2140      C2141   1.408       .  A
C2141      C2142   1.398       .  A
C2141      H2145   1.083       .  S
C2142      O2146   1.371       .  S
O2144      H2148   0.992       .  S
O2146      H2147   0.992       .  S
C2149      C2150   1.409       .  A
C2149      C2154   1.410       .  A
C2150      C2151   1.399       .  A
C2150      H2155   1.083       .  S
C2151      C2152   1.408       .  A
C2151      O2156   1.372       .  S
C2152      C2153   1.407       .  A
C2153      C2154   1.402       .  A
C2153      H2157   1.083       .  S
C2154      O2158   1.372       .  S
O2156      H2160   0.992       .  S
O2158      H2159   0.992       .  S
C2161      C2162   1.399       .  A
C2161      C2166   1.403   1_554  A
C2162      C2163   1.396       .  A
C2162      H2167   1.084       .  S
C2163      C2164   1.413       .  A
C2163      O2168   1.372       .  S
C2164      C2165   1.406   1_554  A
C2165      C2166   1.396       .  A
C2165      H2169   1.083       .  S
C2166      O2170   1.372       .  S
O2168      H2172   0.992   1_554  S
O2170      H2171   0.992   1_556  S
C2173      C2174   1.409       .  A
C2173      C2178   1.409       .  A
C2174      C2175   1.402       .  A
C2174      H2179   1.083       .  S
C2175      C2176   1.407       .  A
C2175      O2180   1.372       .  S
C2176      C2177   1.406       .  A
C2177      C2178   1.399       .  A
C2177      H2181   1.084       .  S
C2178      O2182   1.371       .  S
O2180      H2184   0.992       .  S
O2182      H2183   0.992       .  S
C2185      C2186   1.408       .  A
C2185      C2190   1.408       .  A
C2186      C2187   1.402       .  A
C2186      H2191   1.083       .  S
C2187      C2188   1.409       .  A
C2187      O2192   1.372       .  S
C2188      C2189   1.408       .  A
C2189      C2190   1.399       .  A
C2189      H2193   1.084       .  S
C2190      O2194   1.371       .  S
O2192      H2196   0.992       .  S
O2194      H2195   0.992       .  S
C2197      C2198   1.408       .  A
C2197      C2202   1.408       .  A
C2198      C2199   1.403       .  A
C2198      H2203   1.083       .  S
C2199      C2200   1.409       .  A
C2199      O2204   1.372       .  S
C2200      C2201   1.410       .  A
C2201      C2202   1.401       .  A
C2201      H2205   1.083       .  S
C2202      O2206   1.371       .  S
O2204      H2208   0.992       .  S
O2206      H2207   0.992       .  S
C2209      C2210   1.404       .  A
C2209      C2214   1.409       .  A
C2210      C2211   1.404       .  A
C2210      H2215   1.083       .  S
C2211      C2212   1.407       .  A
C2211      O2216   1.371       .  S
C2212      C2213   1.401       .  A
C2213      C2214   1.398       .  A
C2213      H2217   1.084       .  S
C2214      O2218   1.372       .  S
O2216      H2220   0.992       .  S
O2218      H2219   0.992       .  S
C2221      C2222   1.400       .  A
C2221      C2226   1.404       .  A
C2222      C2223   1.398       .  A
C2222      H2227   1.084       .  S
C2223      C2224   1.409       .  A
C2223      O2228   1.372       .  S
C2224      C2225   1.403       .  A
C2225      C2226   1.397       .  A
C2225      H2229   1.084       .  S
C2226      O2230   1.372       .  S
O2228      H2232   0.992       .  S
O2230      H2231   0.992       .  S
C2233      C2234   1.398       .  A
C2233      C2238   1.403       .  A
C2234      C2235   1.396       .  A
C2234      H2239   1.084       .  S
C2235      C2236   1.413       .  A
C2235      O2240   1.372       .  S
C2236      C2237   1.407       .  A
C2237      C2238   1.396       .  A
C2237      H2241   1.083       .  S
C2238      O2242   1.372       .  S
O2240      H2244   0.992       .  S
O2242      H2243   0.992       .  S
C2245      C2246   1.401       .  A
C2245      C2250   1.412       .  A
C2246      C2247   1.400       .  A
C2246      H2251   1.084       .  S
C2247      C2248   1.415       .  A
C2247      O2252   1.372       .  S
C2248      C2249   1.403       .  A
C2249      C2250   1.400       .  A
C2249      H2253   1.083       .  S
C2250      O2254   1.372       .  S
O2252      H2256   0.992       .  S
O2254      H2255   0.992       .  S
C2257      C2258   1.401       .  A
C2257      C2262   1.411       .  A
C2258      C2259   1.400       .  A
C2258      H2263   1.084       .  S
C2259      C2260   1.415       .  A
C2259      O2264   1.372       .  S
C2260      C2261   1.404       .  A
C2261      C2262   1.401       .  A
C2261      H2265   1.083       .  S
C2262      O2266   1.372       .  S
O2264      H2268   0.992       .  S
O2266      H2267   0.992       .  S
C2269      C2270   1.400       .  A
C2269      C2274   1.404       .  A
C2270      C2271   1.396       .  A
C2270      H2275   1.084       .  S
C2271      C2272   1.409       .  A
C2271      O2276   1.372       .  S
C2272      C2273   1.404       .  A
C2273      C2274   1.397       .  A
C2273      H2277   1.084       .  S
C2274      O2278   1.371       .  S
O2276      H2280   0.992       .  S
O2278      H2279   0.992       .  S
C2281      C2282   1.409       .  A
C2281      C2286   1.409       .  A
C2282      C2283   1.401       .  A
C2282      H2287   1.083       .  S
C2283      C2284   1.408       .  A
C2283      O2288   1.372       .  S
C2284      C2285   1.407       .  A
C2285      C2286   1.401       .  A
C2285      H2289   1.084       .  S
C2286      O2290   1.371       .  S
O2288      H2292   0.992       .  S
O2290      H2291   0.992       .  S
C2293      C2294   1.396       .  A
C2293      C2298   1.406       .  A
C2294      C2295   1.400       .  A
C2294      H2299   1.084       .  S
C2295      C2296   1.419       .  A
C2295      O2300   1.374       .  S
C2296      C2297   1.409       .  A
C2297      C2298   1.405       .  A
C2297      H2301   1.083       .  S
C2298      O2302   1.372       .  S
O2300      H2304   0.992       .  S
O2302      H2303   0.992       .  S
C2305      C2306   1.407       .  A
C2305      C2310   1.410       .  A
C2306      C2307   1.399       .  A
C2306      H2311   1.083       .  S
C2307      C2308   1.405       .  A
C2307      O2312   1.372       .  S
C2308      C2309   1.405       .  A
C2309      C2310   1.404       .  A
C2309      H2313   1.084       .  S
C2310      O2314   1.371       .  S
O2312      H2316   0.992       .  S
O2314      H2315   0.992       .  S
C2317      C2318   1.408       .  A
C2317      C2322   1.410       .  A
C2318      C2319   1.400       .  A
C2318      H2323   1.083       .  S
C2319      C2320   1.409       .  A
C2319      O2324   1.371       .  S
C2320      C2321   1.407       .  A
C2321      C2322   1.403       .  A
C2321      H2325   1.083       .  S
C2322      O2326   1.372       .  S
O2324      H2328   0.992       .  S
O2326      H2327   0.992       .  S
C2329      C2330   1.406       .  A
C2329      C2334   1.413       .  A
C2330      C2331   1.404       .  A
C2330      H2335   1.083       .  S
C2331      C2332   1.406       .  A
C2331      O2336   1.371       .  S
C2332      C2333   1.398       .  A
C2333      C2334   1.401       .  A
C2333      H2337   1.084       .  S
C2334      O2338   1.373       .  S
O2336      H2340   0.992       .  S
O2338      H2339   0.992       .  S
C2341      C2342   1.409       .  A
C2341      C2346   1.410       .  A
C2342      C2343   1.400       .  A
C2342      H2347   1.083       .  S
C2343      C2344   1.408       .  A
C2343      O2348   1.371       .  S
C2344      C2345   1.408       .  A
C2345      C2346   1.403       .  A
C2345      H2349   1.083       .  S
C2346      O2350   1.372       .  S
O2348      H2352   0.992       .  S
O2350      H2351   0.992       .  S
C2353      C2354   1.399       .  A
C2353      C2358   1.403       .  A
C2354      C2355   1.399       .  A
C2354      H2359   1.084       .  S
C2355      C2356   1.414       .  A
C2355      O2360   1.371       .  S
C2356      C2357   1.407       .  A
C2357      C2358   1.395       .  A
C2357      H2361   1.083       .  S
C2358      O2362   1.372       .  S
O2360      H2364   0.992       .  S
O2362      H2363   0.992       .  S
C2365      C2366   1.407       .  A
C2365      C2370   1.414       .  A
C2366      C2367   1.397       .  A
C2366      H2371   1.083       .  S
C2367      C2368   1.403       .  A
C2367      O2372   1.372       .  S
C2368      C2369   1.399       .  A
C2369      C2370   1.396       .  A
C2369      H2373   1.084       .  S
C2370      O2374   1.372       .  S
O2372      H2376   0.992       .  S
O2374      H2375   0.992       .  S
C2377      C2378   1.407       .  A
C2377      C2382   1.413       .  A
C2378      C2379   1.397       .  A
C2378      H2383   1.083       .  S
C2379      C2380   1.403       .  A
C2379      O2384   1.372       .  S
C2380      C2381   1.399       .  A
C2381      C2382   1.398       .  A
C2381      H2385   1.084       .  S
C2382      O2386   1.372       .  S
O2384      H2388   0.992       .  S
O2386      H2387   0.992       .  S
C2389      C2390   1.402       .  A
C2389      C2394   1.414       .  A
C2390      C2391   1.400       .  A
C2390      H2395   1.083       .  S
C2391      C2392   1.417       .  A
C2391      O2396   1.372       .  S
C2392      C2393   1.404       .  A
C2393      C2394   1.402       .  A
C2393      H2397   1.083       .  S
C2394      O2398   1.371       .  S
O2396      H2400   0.991       .  S
O2398      H2399   0.992       .  S
C2401      C2402   1.408       .  A
C2401      C2406   1.408       .  A
C2402      C2403   1.402       .  A
C2402      H2407   1.083       .  S
C2403      C2404   1.409       .  A
C2403      O2408   1.371       .  S
C2404      C2405   1.408       .  A
C2405      C2406   1.401       .  A
C2405      H2409   1.084       .  S
C2406      O2410   1.371       .  S
O2408      H2412   0.992       .  S
O2410      H2411   0.992       .  S
C2413      C2414   1.408       .  A
C2413      C2418   1.418       .  A
C2414      C2415   1.404       .  A
C2414      H2419   1.083       .  S
C2415      C2416   1.406       .  A
C2415      O2420   1.371       .  S
C2416      C2417   1.396       .  A
C2417      C2418   1.400       .  A
C2417      H2421   1.084       .  S
C2418      O2422   1.374       .  S
O2420      H2424   0.992       .  S
O2422      H2423   0.992       .  S
C2425      C2426   1.403       .  A
C2425      C2430   1.415       .  A
C2426      C2427   1.402       .  A
C2426      H2431   1.083       .  S
C2427      C2428   1.414       .  A
C2427      O2432   1.371       .  S
C2428      C2429   1.402       .  A
C2429      C2430   1.402       .  A
C2429      H2433   1.083       .  S
C2430      O2434   1.373       .  S
O2432      H2436   0.992       .  S
O2434      H2435   0.992       .  S
C2437      C2438   1.398   1_455  A
C2437      C2442   1.403       .  A
C2438      C2439   1.396       .  A
C2438      H2443   1.084       .  S
C2439      C2440   1.415       .  A
C2439      O2444   1.371       .  S
C2440      C2441   1.408   1_655  A
C2441      C2442   1.398       .  A
C2441      H2445   1.083       .  S
C2442      O2446   1.372       .  S
O2444      H2448   0.992       .  S
O2446      H2447   0.992       .  S
C2449      C2450   1.400       .  A
C2449      C2454   1.402       .  A
C2450      C2451   1.398       .  A
C2450      H2455   1.084       .  S
C2451      C2452   1.410       .  A
C2451      O2456   1.372       .  S
C2452      C2453   1.405       .  A
C2453      C2454   1.394       .  A
C2453      H2457   1.084       .  S
C2454      O2458   1.372       .  S
O2456      H2460   0.992       .  S
O2458      H2459   0.992       .  S
C2461      C2462   1.398       .  A
C2461      C2466   1.404       .  A
C2462      C2463   1.395       .  A
C2462      H2467   1.084       .  S
C2463      C2464   1.411       .  A
C2463      O2468   1.372       .  S
C2464      C2465   1.405       .  A
C2465      C2466   1.397       .  A
C2465      H2469   1.083       .  S
C2466      O2470   1.372       .  S
O2468      H2472   0.992       .  S
O2470      H2471   0.992   1_655  S
C2473      C2474   1.403       .  A
C2473      C2478   1.413       .  A
C2474      C2475   1.401       .  A
C2474      H2479   1.083       .  S
C2475      C2476   1.414       .  A
C2475      O2480   1.371       .  S
C2476      C2477   1.403       .  A
C2477      C2478   1.402       .  A
C2477      H2481   1.083       .  S
C2478      O2482   1.373       .  S
O2480      H2484   0.992       .  S
O2482      H2483   0.992       .  S
C2485      C2486   1.403       .  A
C2485      C2490   1.414       .  A
C2486      C2487   1.402       .  A
C2486      H2491   1.083       .  S
C2487      C2488   1.414       .  A
C2487      O2492   1.371       .  S
C2488      C2489   1.402       .  A
C2489      C2490   1.401       .  A
C2489      H2493   1.083       .  S
C2490      O2494   1.373       .  S
O2492      H2496   0.992       .  S
O2494      H2495   0.992       .  S
C2497      C2498   1.403       .  A
C2497      C2502   1.410       .  A
C2498      C2499   1.402       .  A
C2498      H2503   1.084       .  S
C2499      C2500   1.407       .  A
C2499      O2504   1.371       .  S
C2500      C2501   1.401       .  A
C2501      C2502   1.401       .  A
C2501      H2505   1.084       .  S
C2502      O2506   1.372       .  S
O2504      H2508   0.992       .  S
O2506      H2507   0.992       .  S
C2509      C2510   1.399       .  A
C2509      C2514   1.403       .  A
C2510      C2511   1.398       .  A
C2510      H2515   1.084       .  S
C2511      C2512   1.415       .  A
C2511      O2516   1.371       .  S
C2512      C2513   1.408       .  A
C2513      C2514   1.396       .  A
C2513      H2517   1.083       .  S
C2514      O2518   1.372       .  S
O2516      H2520   0.992       .  S
O2518      H2519   0.992       .  S
C2521      C2522   1.407       .  A
C2521      C2526   1.412   1_556  A
C2522      C2523   1.398       .  A
C2522      H2527   1.083       .  S
C2523      C2524   1.403       .  A
C2523      O2528   1.372       .  S
C2524      C2525   1.399   1_556  A
C2525      C2526   1.396       .  A
C2525      H2529   1.084       .  S
C2526      O2530   1.372       .  S
O2528      H2532   0.992   1_556  S
O2530      H2531   0.992   1_554  S
C2533      C2534   1.404       .  A
C2533      C2538   1.407       .  A
C2534      C2535   1.405       .  A
C2534      H2539   1.084       .  S
C2535      C2536   1.408       .  A
C2535      O2540   1.371       .  S
C2536      C2537   1.404       .  A
C2537      C2538   1.401       .  A
C2537      H2541   1.084       .  S
C2538      O2542   1.372       .  S
O2540      H2544   0.992       .  S
O2542      H2543   0.992       .  S
C2545      C2546   1.409       .  A
C2545      C2550   1.416       .  A
C2546      C2547   1.398       .  A
C2546      H2551   1.083       .  S
C2547      C2548   1.404       .  A
C2547      O2552   1.372       .  S
C2548      C2549   1.398       .  A
C2549      C2550   1.396       .  A
C2549      H2553   1.084       .  S
C2550      O2554   1.371       .  S
O2552      H2556   0.992       .  S
O2554      H2555   0.992       .  S
C2557      C2558   1.403       .  A
C2557      C2562   1.414       .  A
C2558      C2559   1.404       .  A
C2558      H2563   1.083       .  S
C2559      C2560   1.413       .  A
C2559      O2564   1.373       .  S
C2560      C2561   1.402       .  A
C2561      C2562   1.400       .  A
C2561      H2565   1.083       .  S
C2562      O2566   1.371       .  S
O2564      H2568   0.992       .  S
O2566      H2567   0.992       .  S
C2569      C2570   1.407       .  A
C2569      C2574   1.408       .  A
C2570      C2571   1.401       .  A
C2570      H2575   1.083       .  S
C2571      C2572   1.408       .  A
C2571      O2576   1.372       .  S
C2572      C2573   1.408       .  A
C2573      C2574   1.400       .  A
C2573      H2577   1.084       .  S
C2574      O2578   1.372       .  S
O2576      H2580   0.992       .  S
O2578      H2579   0.992       .  S
C2581      C2582   1.412       .  A
C2581      C2586   1.414       .  A
C2582      C2583   1.395       .  A
C2582      H2587   1.083       .  S
C2583      C2584   1.400       .  A
C2583      O2588   1.373       .  S
C2584      C2585   1.404       .  A
C2585      C2586   1.407       .  A
C2585      H2589   1.084       .  S
C2586      O2590   1.370       .  S
O2588      H2592   0.992       .  S
O2590      H2591   0.992       .  S
C2593      C2594   1.408   1_655  A
C2593      C2598   1.414       .  A
C2594      C2595   1.394       .  A
C2594      H2599   1.082       .  S
C2595      C2596   1.412   1_455  A
C2595      O2600   1.372       .  S
C2596      C2597   1.407       .  A
C2597      C2598   1.399       .  A
C2597      H2601   1.082       .  S
C2598      O2602   1.373       .  S
O2600      H2604   0.992       .  S
O2602      H2603   0.992       .  S
C2605      C2606   1.408       .  A
C2605      C2610   1.409       .  A
C2606      C2607   1.399       .  A
C2606      H2611   1.083       .  S
C2607      C2608   1.408       .  A
C2607      O2612   1.371       .  S
C2608      C2609   1.408       .  A
C2609      C2610   1.403       .  A
C2609      H2613   1.083       .  S
C2610      O2614   1.372       .  S
O2612      H2616   0.992       .  S
O2614      H2615   0.992       .  S
C2617      C2618   1.398       .  A
C2617      C2622   1.405       .  A
C2618      C2619   1.397       .  A
C2618      H2623   1.084       .  S
C2619      C2620   1.414       .  A
C2619      O2624   1.372       .  S
C2620      C2621   1.404       .  A
C2621      C2622   1.396       .  A
C2621      H2625   1.083       .  S
C2622      O2626   1.372       .  S
O2624      H2628   0.992   1_565  S
O2626      H2627   0.992       .  S
C2629      C2630   1.409       .  A
C2629      C2634   1.414   1_545  A
C2630      C2631   1.398       .  A
C2630      H2635   1.083       .  S
C2631      C2632   1.403       .  A
C2631      O2636   1.371       .  S
C2632      C2633   1.399   1_545  A
C2633      C2634   1.396       .  A
C2633      H2637   1.084       .  S
C2634      O2638   1.372       .  S
O2636      H2640   0.992       .  S
O2638      H2639   0.992       .  S
C2641      C2642   1.404       .  A
C2641      C2646   1.400       .  A
C2642      C2643   1.407       .  A
C2642      H2647   1.084       .  S
C2643      C2644   1.414       .  A
C2643      O2648   1.371       .  S
C2644      C2645   1.412       .  A
C2645      C2646   1.395       .  A
C2645      H2649   1.083       .  S
C2646      O2650   1.373       .  S
O2648      H2652   0.992       .  S
O2650      H2651   0.992       .  S
C2653      C2654   1.395       .  A
C2653      C2658   1.407       .  A
C2654      C2655   1.398       .  A
C2654      H2659   1.084       .  S
C2655      C2656   1.419       .  A
C2655      O2660   1.374       .  S
C2656      C2657   1.408       .  A
C2657      C2658   1.404       .  A
C2657      H2661   1.083       .  S
C2658      O2662   1.371       .  S
O2660      H2664   0.992       .  S
O2662      H2663   0.992       .  S
C2665      C2666   1.408       .  A
C2665      C2670   1.408       .  A
C2666      C2667   1.401       .  A
C2666      H2671   1.083       .  S
C2667      C2668   1.408       .  A
C2667      O2672   1.372       .  S
C2668      C2669   1.409       .  A
C2669      C2670   1.401       .  A
C2669      H2673   1.084       .  S
C2670      O2674   1.371       .  S
O2672      H2676   0.992       .  S
O2674      H2675   0.992       .  S
C2677      C2678   1.408       .  A
C2677      C2682   1.409       .  A
C2678      C2679   1.401       .  A
C2678      H2683   1.083       .  S
C2679      C2680   1.405       .  A
C2679      O2684   1.372       .  S
C2680      C2681   1.404       .  A
C2681      C2682   1.401       .  A
C2681      H2685   1.084       .  S
C2682      O2686   1.371       .  S
O2684      H2688   0.992       .  S
O2686      H2687   0.992       .  S
C2689      C2690   1.408       .  A
C2689      C2694   1.410       .  A
C2690      C2691   1.403       .  A
C2690      H2695   1.083       .  S
C2691      C2692   1.410       .  A
C2691      O2696   1.371       .  S
C2692      C2693   1.406       .  A
C2693      C2694   1.399       .  A
C2693      H2697   1.083       .  S
C2694      O2698   1.372       .  S
O2696      H2700   0.992       .  S
O2698      H2699   0.992       .  S
C2701      C2702   1.409       .  A
C2701      C2706   1.410       .  A
C2702      C2703   1.402       .  A
C2702      H2707   1.083       .  S
C2703      C2704   1.409       .  A
C2703      O2708   1.371       .  S
C2704      C2705   1.406       .  A
C2705      C2706   1.400       .  A
C2705      H2709   1.083       .  S
C2706      O2710   1.372       .  S
O2708      H2712   0.992       .  S
O2710      H2711   0.992       .  S
C2713      C2714   1.405       .  A
C2713      C2718   1.415       .  A
C2714      C2715   1.405       .  A
C2714      H2719   1.083       .  S
C2715      C2716   1.408       .  A
C2715      O2720   1.371       .  S
C2716      C2717   1.396       .  A
C2717      C2718   1.396       .  A
C2717      H2721   1.084       .  S
C2718      O2722   1.372       .  S
O2720      H2724   0.992       .  S
O2722      H2723   0.992       .  S
C2725      C2726   1.410       .  A
C2725      C2730   1.411       .  A
C2726      C2727   1.402       .  A
C2726      H2731   1.083       .  S
C2727      C2728   1.408       .  A
C2727      O2732   1.371       .  S
C2728      C2729   1.407       .  A
C2729      C2730   1.402       .  A
C2729      H2733   1.083       .  S
C2730      O2734   1.372       .  S
O2732      H2736   0.992       .  S
O2734      H2735   0.992       .  S
C2737      C2738   1.407       .  A
C2737      C2742   1.416       .  A
C2738      C2739   1.397       .  A
C2738      H2743   1.081       .  S
C2739      C2740   1.417       .  A
C2739      O2744   1.372       .  S
C2740      C2741   1.409       .  A
C2741      C2742   1.397       .  A
C2741      H2745   1.080       .  S
C2742      O2746   1.371       .  S
O2744      H2748   0.993       .  S
O2746      H2747   0.992       .  S
C2749      C2750   1.410       .  A
C2749      C2754   1.414   1_655  A
C2750      C2751   1.401       .  A
C2750      H2755   1.081       .  S
C2751      C2752   1.414       .  A
C2751      O2756   1.373       .  S
C2752      C2753   1.410   1_655  A
C2753      C2754   1.395       .  A
C2753      H2757   1.081       .  S
C2754      O2758   1.371       .  S
O2756      H2760   0.993       .  S
O2758      H2759   0.992       .  S
C2761      C2762   1.409       .  A
C2761      C2766   1.417       .  A
C2762      C2763   1.397       .  A
C2762      H2767   1.080       .  S
C2763      C2764   1.414       .  A
C2763      O2768   1.373       .  S
C2764      C2765   1.409       .  A
C2765      C2766   1.400       .  A
C2765      H2769   1.080       .  S
C2766      O2770   1.373       .  S
O2768      H2772   0.993       .  S
O2770      H2771   0.993       .  S
C2773      C2774   1.404       .  A
C2773      C2778   1.414       .  A
C2774      C2775   1.403       .  A
C2774      H2779   1.083       .  S
C2775      C2776   1.414       .  A
C2775      O2780   1.371       .  S
C2776      C2777   1.402       .  A
C2777      C2778   1.398       .  A
C2777      H2781   1.084       .  S
C2778      O2782   1.372       .  S
O2780      H2784   0.992       .  S
O2782      H2783   0.992       .  S
C2785      C2786   1.394       .  A
C2785      C2790   1.407       .  A
C2786      C2787   1.399       .  A
C2786      H2791   1.084       .  S
C2787      C2788   1.421       .  A
C2787      O2792   1.374       .  S
C2788      C2789   1.410       .  A
C2789      C2790   1.406       .  A
C2789      H2793   1.082       .  S
C2790      O2794   1.371       .  S
O2792      H2796   0.992       .  S
O2794      H2795   0.992       .  S
C2797      C2798   1.403       .  A
C2797      C2802   1.414       .  A
C2798      C2799   1.399       .  A
C2798      H2803   1.083       .  S
C2799      C2800   1.413       .  A
C2799      O2804   1.371       .  S
C2800      C2801   1.404       .  A
C2801      C2802   1.405       .  A
C2801      H2805   1.083       .  S
C2802      O2806   1.373       .  S
O2804      H2808   0.992       .  S
O2806      H2807   0.992       .  S
C2809      C2810   1.408       .  A
C2809      C2814   1.408       .  A
C2810      C2811   1.403       .  A
C2810      H2815   1.083       .  S
C2811      C2812   1.409       .  A
C2811      O2816   1.372       .  S
C2812      C2813   1.409       .  A
C2813      C2814   1.401       .  A
C2813      H2817   1.083       .  S
C2814      O2818   1.371       .  S
O2816      H2820   0.992       .  S
O2818      H2819   0.992       .  S
C2821      C2822   1.407       .  A
C2821      C2826   1.412       .  A
C2822      C2823   1.395       .  A
C2822      H2827   1.084       .  S
C2823      C2824   1.403       .  A
C2823      O2828   1.372       .  S
C2824      C2825   1.400       .  A
C2825      C2826   1.399       .  A
C2825      H2829   1.084       .  S
C2826      O2830   1.371       .  S
O2828      H2832   0.992       .  S
O2830      H2831   0.992       .  S
C2833      C2834   1.407       .  A
C2833      C2838   1.412       .  A
C2834      C2835   1.399       .  A
C2834      H2839   1.082       .  S
C2835      C2836   1.415       .  A
C2835      O2840   1.373       .  S
C2836      C2837   1.409       .  A
C2837      C2838   1.399       .  A
C2837      H2841   1.081       .  S
C2838      O2842   1.373       .  S
O2840      H2844   0.992       .  S
O2842      H2843   0.992       .  S
C2845      C2846   1.409       .  A
C2845      C2850   1.409       .  A
C2846      C2847   1.400       .  A
C2846      H2851   1.083       .  S
C2847      C2848   1.408       .  A
C2847      O2852   1.371       .  S
C2848      C2849   1.407       .  A
C2849      C2850   1.402       .  A
C2849      H2853   1.083       .  S
C2850      O2854   1.372       .  S
O2852      H2856   0.992       .  S
O2854      H2855   0.992       .  S
C2857      C2858   1.400       .  A
C2857      C2862   1.403       .  A
C2858      C2859   1.399       .  A
C2858      H2863   1.084       .  S
C2859      C2860   1.411       .  A
C2859      O2864   1.371       .  S
C2860      C2861   1.406       .  A
C2861      C2862   1.394       .  A
C2861      H2865   1.084       .  S
C2862      O2866   1.372       .  S
O2864      H2868   0.992       .  S
O2866      H2867   0.992       .  S
C2869      C2870   1.405       .  A
C2869      C2874   1.414       .  A
C2870      C2871   1.402       .  A
C2870      H2875   1.083       .  S
C2871      C2872   1.409       .  A
C2871      O2876   1.371       .  S
C2872      C2873   1.400       .  A
C2873      C2874   1.400       .  A
C2873      H2877   1.084       .  S
C2874      O2878   1.372       .  S
O2876      H2880   0.992       .  S
O2878      H2879   0.992       .  S
C2881      C2882   1.402       .  A
C2881      C2886   1.401       .  A
C2882      C2883   1.404       .  A
C2882      H2887   1.084       .  S
C2883      C2884   1.417       .  A
C2883      O2888   1.371       .  S
C2884      C2885   1.413       .  A
C2885      C2886   1.397       .  A
C2885      H2889   1.082       .  S
C2886      O2890   1.372       .  S
O2888      H2892   0.992       .  S
O2890      H2891   0.992       .  S
C2893      C2894   1.407       .  A
C2893      C2898   1.417       .  A
C2894      C2895   1.405       .  A
C2894      H2899   1.083       .  S
C2895      C2896   1.407       .  A
C2895      O2900   1.371       .  S
C2896      C2897   1.395       .  A
C2897      C2898   1.397       .  A
C2897      H2901   1.084       .  S
C2898      O2902   1.374       .  S
O2900      H2904   0.992       .  S
O2902      H2903   0.992       .  S
C2905      C2906   1.398       .  A
C2905      C2910   1.408       .  A
C2906      C2907   1.396       .  A
C2906      H2911   1.084       .  S
C2907      C2908   1.411       .  A
C2907      O2912   1.373       .  S
C2908      C2909   1.404       .  A
C2909      C2910   1.406       .  A
C2909      H2913   1.083       .  S
C2910      O2914   1.371       .  S
O2912      H2916   0.992       .  S
O2914      H2915   0.991       .  S
C2917      C2918   1.402       .  A
C2917      C2922   1.414       .  A
C2918      C2919   1.401       .  A
C2918      H2923   1.083       .  S
C2919      C2920   1.415       .  A
C2919      O2924   1.371       .  S
C2920      C2921   1.402       .  A
C2921      C2922   1.402       .  A
C2921      H2925   1.083       .  S
C2922      O2926   1.373       .  S
O2924      H2928   0.992       .  S
O2926      H2927   0.992       .  S
C2929      C2930   1.407       .  A
C2929      C2934   1.416       .  A
C2930      C2931   1.405       .  A
C2930      H2935   1.083       .  S
C2931      C2932   1.406       .  A
C2931      O2936   1.371       .  S
C2932      C2933   1.396       .  A
C2933      C2934   1.398       .  A
C2933      H2937   1.084       .  S
C2934      O2938   1.374       .  S
O2936      H2940   0.992       .  S
O2938      H2939   0.992       .  S
C2941      C2942   1.407       .  A
C2941      C2946   1.412       .  A
C2942      C2943   1.397       .  A
C2942      H2947   1.082       .  S
C2943      C2944   1.413       .  A
C2943      O2948   1.373       .  S
C2944      C2945   1.408       .  A
C2945      C2946   1.397       .  A
C2945      H2949   1.082       .  S
C2946      O2950   1.373       .  S
O2948      H2952   0.992       .  S
O2950      H2951   0.992       .  S
C2953      C2954   1.407       .  A
C2953      C2958   1.412       .  A
C2954      C2955   1.394       .  A
C2954      H2959   1.084       .  S
C2955      C2956   1.402       .  A
C2955      O2960   1.372       .  S
C2956      C2957   1.399       .  A
C2957      C2958   1.398       .  A
C2957      H2961   1.084       .  S
C2958      O2962   1.371       .  S
O2960      H2964   0.992       .  S
O2962      H2963   0.992       .  S
C2965      C2966   1.403       .  A
C2965      C2970   1.414       .  A
C2966      C2967   1.395       .  A
C2966      H2971   1.083       .  S
C2967      C2968   1.405       .  A
C2967      O2972   1.372       .  S
C2968      C2969   1.397       .  A
C2969      C2970   1.396       .  A
C2969      H2973   1.084       .  S
C2970      O2974   1.372       .  S
O2972      H2976   0.992       .  S
O2974      H2975   0.992       .  S
C2977      C2978   1.397       .  A
C2977      C2982   1.406       .  A
C2978      C2979   1.399       .  A
C2978      H2983   1.084       .  S
C2979      C2980   1.415       .  A
C2979      O2984   1.374       .  S
C2980      C2981   1.407       .  A
C2981      C2982   1.404       .  A
C2981      H2985   1.083       .  S
C2982      O2986   1.371       .  S
O2984      H2988   0.992       .  S
O2986      H2987   0.992       .  S
C2989      C2990   1.394       .  A
C2989      C2994   1.408       .  A
C2990      C2991   1.397       .  A
C2990      H2995   1.084       .  S
C2991      C2992   1.417       .  A
C2991      O2996   1.373       .  S
C2992      C2993   1.407       .  A
C2993      C2994   1.407       .  A
C2993      H2997   1.083       .  S
C2994      O2998   1.371       .  S
O2996      H3000   0.992       .  S
O2998      H2999   0.992       .  S
C3001      C3002   1.406       .  A
C3001      C3006   1.409       .  A
C3002      C3003   1.399       .  A
C3002      H3007   1.084       .  S
C3003      C3004   1.405       .  A
C3003      O3008   1.372       .  S
C3004      C3005   1.404       .  A
C3005      C3006   1.403       .  A
C3005      H3009   1.084       .  S
C3006      O3010   1.371       .  S
O3008      H3012   0.992       .  S
O3010      H3011   0.992       .  S
C3013      C3014   1.402       .  A
C3013      C3018   1.400       .  A
C3014      C3015   1.406       .  A
C3014      H3019   1.084       .  S
C3015      C3016   1.416       .  A
C3015      O3020   1.371       .  S
C3016      C3017   1.412       .  A
C3017      C3018   1.396       .  A
C3017      H3021   1.083       .  S
C3018      O3022   1.372       .  S
O3020      H3024   0.992       .  S
O3022      H3023   0.992       .  S
C3025      C3026   1.401       .  A
C3025      C3030   1.401       .  A
C3026      C3027   1.403       .  A
C3026      H3031   1.084       .  S
C3027      C3028   1.415       .  A
C3027      O3032   1.371       .  S
C3028      C3029   1.410       .  A
C3029      C3030   1.397       .  A
C3029      H3033   1.083       .  S
C3030      O3034   1.372       .  S
O3032      H3036   0.992       .  S
O3034      H3035   0.991       .  S
C3037      C3038   1.405       .  A
C3037      C3042   1.406       .  A
C3038      C3039   1.400       .  A
C3038      H3043   1.084       .  S
C3039      C3040   1.409       .  A
C3039      O3044   1.371       .  S
C3040      C3041   1.407       .  A
C3041      C3042   1.400       .  A
C3041      H3045   1.083       .  S
C3042      O3046   1.372       .  S
O3044      H3048   0.992       .  S
O3046      H3047   0.992       .  S
C3049      C3050   1.396       .  A
C3049      C3054   1.406       .  A
C3050      C3051   1.399       .  A
C3050      H3055   1.084       .  S
C3051      C3052   1.415       .  A
C3051      O3056   1.374       .  S
C3052      C3053   1.407       .  A
C3053      C3054   1.403       .  A
C3053      H3057   1.083       .  S
C3054      O3058   1.371       .  S
O3056      H3060   0.992       .  S
O3058      H3059   0.992       .  S
C3061      C3062   1.409       .  A
C3061      C3066   1.421       .  A
C3062      C3063   1.403       .  A
C3062      H3067   1.082       .  S
C3063      C3064   1.406       .  A
C3063      O3068   1.371       .  S
C3064      C3065   1.395       .  A
C3065      C3066   1.400       .  A
C3065      H3069   1.084       .  S
C3066      O3070   1.373       .  S
O3068      H3072   0.992       .  S
O3070      H3071   0.993       .  S
C3073      C3074   1.402       .  A
C3073      C3078   1.411       .  A
C3074      C3075   1.396       .  A
C3074      H3079   1.084       .  S
C3075      C3076   1.405       .  A
C3075      O3080   1.372       .  S
C3076      C3077   1.399       .  A
C3077      C3078   1.397       .  A
C3077      H3081   1.084       .  S
C3078      O3082   1.372       .  S
O3080      H3084   0.992       .  S
O3082      H3083   0.992       .  S
C3085      C3086   1.403       .  A
C3085      C3090   1.412       .  A
C3086      C3087   1.396       .  A
C3086      H3091   1.084       .  S
C3087      C3088   1.404       .  A
C3087      O3092   1.372       .  S
C3088      C3089   1.398       .  A
C3089      C3090   1.396       .  A
C3089      H3093   1.084       .  S
C3090      O3094   1.372       .  S
O3092      H3096   0.992       .  S
O3094      H3095   0.992       .  S
C3097      C3098   1.409       .  A
C3097      C3102   1.415       .  A
C3098      C3099   1.398       .  A
C3098      H3103   1.083       .  S
C3099      C3100   1.403       .  A
C3099      O3104   1.372       .  S
C3100      C3101   1.398       .  A
C3101      C3102   1.397       .  A
C3101      H3105   1.084       .  S
C3102      O3106   1.371       .  S
O3104      H3108   0.992       .  S
O3106      H3107   0.992       .  S
C3109      C3110   1.409       .  A
C3109      C3114   1.409       .  A
C3110      C3111   1.402       .  A
C3110      H3115   1.083       .  S
C3111      C3112   1.408       .  A
C3111      O3116   1.372       .  S
C3112      C3113   1.407       .  A
C3113      C3114   1.401       .  A
C3113      H3117   1.084       .  S
C3114      O3118   1.371       .  S
O3116      H3120   0.992       .  S
O3118      H3119   0.992       .  S
C3121      C3122   1.404       .  A
C3121      C3126   1.414       .  A
C3122      C3123   1.403       .  A
C3122      H3127   1.083       .  S
C3123      C3124   1.412       .  A
C3123      O3128   1.373       .  S
C3124      C3125   1.402       .  A
C3125      C3126   1.401       .  A
C3125      H3129   1.084       .  S
C3126      O3130   1.372       .  S
O3128      H3132   0.992       .  S
O3130      H3131   0.992       .  S
C3133      C3134   1.406       .  A
C3133      C3138   1.410       .  A
C3134      C3135   1.398       .  A
C3134      H3139   1.083       .  S
C3135      C3136   1.407       .  A
C3135      O3140   1.372       .  S
C3136      C3137   1.405       .  A
C3137      C3138   1.403       .  A
C3137      H3141   1.084       .  S
C3138      O3142   1.371       .  S
O3140      H3144   0.992       .  S
O3142      H3143   0.992       .  S
C3145      C3146   1.405       .  A
C3145      C3150   1.408       .  A
C3146      C3147   1.406       .  A
C3146      H3151   1.083       .  S
C3147      C3148   1.408       .  A
C3147      O3152   1.371       .  S
C3148      C3149   1.401       .  A
C3149      C3150   1.398       .  A
C3149      H3153   1.084       .  S
C3150      O3154   1.372       .  S
O3152      H3156   0.992       .  S
O3154      H3155   0.992       .  S
C3157      C3158   1.408       .  A
C3157      C3162   1.409       .  A
C3158      C3159   1.402       .  A
C3158      H3163   1.083       .  S
C3159      C3160   1.408       .  A
C3159      O3164   1.372       .  S
C3160      C3161   1.407       .  A
C3161      C3162   1.399       .  A
C3161      H3165   1.084       .  S
C3162      O3166   1.371       .  S
O3164      H3168   0.992       .  S
O3166      H3167   0.992       .  S
C3169      C3170   1.400       .  A
C3169      C3174   1.407       .  A
C3170      C3171   1.399       .  A
C3170      H3175   1.084       .  S
C3171      C3172   1.410       .  A
C3171      O3176   1.372       .  S
C3172      C3173   1.404       .  A
C3173      C3174   1.403       .  A
C3173      H3177   1.083       .  S
C3174      O3178   1.371       .  S
O3176      H3180   0.992       .  S
O3178      H3179   0.992       .  S
C3181      C3182   1.400       .  A
C3181      C3186   1.410       .  A
C3182      C3183   1.400       .  A
C3182      H3187   1.084       .  S
C3183      C3184   1.415       .  A
C3183      O3188   1.372       .  S
C3184      C3185   1.404       .  A
C3185      C3186   1.401       .  A
C3185      H3189   1.083       .  S
C3186      O3190   1.372       .  S
O3188      H3192   0.992       .  S
O3190      H3191   0.992       .  S
C3193      C3194   1.414       .  A
C3193      C3198   1.419       .  A
C3194      C3195   1.399       .  A
C3194      H3199   1.082       .  S
C3195      C3196   1.402       .  A
C3195      O3200   1.372       .  S
C3196      C3197   1.402       .  A
C3197      C3198   1.406       .  A
C3197      H3201   1.084       .  S
C3198      O3202   1.371       .  S
O3200      H3204   0.992       .  S
O3202      H3203   0.992       .  S
C3205      C3206   1.402       .  A
C3205      C3210   1.413       .  A
C3206      C3207   1.402       .  A
C3206      H3211   1.084       .  S
C3207      C3208   1.415       .  A
C3207      O3212   1.371       .  S
C3208      C3209   1.402       .  A
C3209      C3210   1.403       .  A
C3209      H3213   1.083       .  S
C3210      O3214   1.373       .  S
O3212      H3216   0.992       .  S
O3214      H3215   0.992       .  S
C3217      C3218   1.397       .  A
C3217      C3222   1.402       .  A
C3218      C3219   1.397       .  A
C3218      H3223   1.084       .  S
C3219      C3220   1.422       .  A
C3219      O3224   1.370       .  S
C3220      C3221   1.413       .  A
C3221      C3222   1.398       .  A
C3221      H3225   1.081       .  S
C3222      O3226   1.372       .  S
O3224      H3228   0.991       .  S
O3226      H3227   0.991       .  S
C3229      C3230   1.399       .  A
C3229      C3234   1.404       .  A
C3230      C3231   1.397       .  A
C3230      H3235   1.084       .  S
C3231      C3232   1.410       .  A
C3231      O3236   1.372       .  S
C3232      C3233   1.404       .  A
C3233      C3234   1.397       .  A
C3233      H3237   1.084       .  S
C3234      O3238   1.372       .  S
O3236      H3240   0.992       .  S
O3238      H3239   0.992       .  S
C3241      C3242   1.408       .  A
C3241      C3246   1.415       .  A
C3242      C3243   1.398       .  A
C3242      H3247   1.083       .  S
C3243      C3244   1.403       .  A
C3243      O3248   1.372       .  S
C3244      C3245   1.399       .  A
C3245      C3246   1.398       .  A
C3245      H3249   1.084       .  S
C3246      O3250   1.372       .  S
O3248      H3252   0.992       .  S
O3250      H3251   0.992       .  S
C3253      C3254   1.409       .  A
C3253      C3258   1.409       .  A
C3254      C3255   1.401       .  A
C3254      H3259   1.083       .  S
C3255      C3256   1.408       .  A
C3255      O3260   1.371       .  S
C3256      C3257   1.408       .  A
C3257      C3258   1.403       .  A
C3257      H3261   1.083       .  S
C3258      O3262   1.372       .  S
O3260      H3264   0.992       .  S
O3262      H3263   0.992       .  S
C3265      C3266   1.406       .  A
C3265      C3270   1.406       .  A
C3266      C3267   1.401       .  A
C3266      H3271   1.084       .  S
C3267      C3268   1.409       .  A
C3267      O3272   1.371       .  S
C3268      C3269   1.408       .  A
C3269      C3270   1.401       .  A
C3269      H3273   1.083       .  S
C3270      O3274   1.372       .  S
O3272      H3276   0.992       .  S
O3274      H3275   0.992       .  S
C3277      C3278   1.410       .  A
C3277      C3282   1.414       .  A
C3278      C3279   1.397       .  A
C3278      H3283   1.083       .  S
C3279      C3280   1.402       .  A
C3279      O3284   1.372       .  S
C3280      C3281   1.402       .  A
C3281      C3282   1.404       .  A
C3281      H3285   1.084       .  S
C3282      O3286   1.371       .  S
O3284      H3288   0.992       .  S
O3286      H3287   0.992       .  S
C3289      C3290   1.401       .  A
C3289      C3294   1.406       .  A
C3290      C3291   1.397       .  A
C3290      H3295   1.084       .  S
C3291      C3292   1.407       .  A
C3291      O3296   1.372       .  S
C3292      C3293   1.402       .  A
C3293      C3294   1.398       .  A
C3293      H3297   1.084       .  S
C3294      O3298   1.372       .  S
O3296      H3300   0.992       .  S
O3298      H3299   0.992   1_565  S
C3301      C3302   1.407   1_545  A
C3301      C3306   1.413       .  A
C3302      C3303   1.397       .  A
C3302      H3307   1.083       .  S
C3303      C3304   1.403   1_565  A
C3303      O3308   1.372       .  S
C3304      C3305   1.399       .  A
C3305      C3306   1.396       .  A
C3305      H3309   1.084       .  S
C3306      O3310   1.372       .  S
O3308      H3312   0.992   1_565  S
O3310      H3311   0.992   1_545  S
C3313      C3314   1.402       .  A
C3313      C3318   1.413       .  A
C3314      C3315   1.400       .  A
C3314      H3319   1.083       .  S
C3315      C3316   1.414       .  A
C3315      O3320   1.371       .  S
C3316      C3317   1.402       .  A
C3317      C3318   1.401       .  A
C3317      H3321   1.083       .  S
C3318      O3322   1.373       .  S
O3320      H3324   0.992       .  S
O3322      H3323   0.992       .  S
C3325      C3326   1.407       .  A
C3325      C3330   1.415       .  A
C3326      C3327   1.395       .  A
C3326      H3331   1.083       .  S
C3327      C3328   1.403       .  A
C3327      O3332   1.372       .  S
C3328      C3329   1.398       .  A
C3329      C3330   1.397       .  A
C3329      H3333   1.084       .  S
C3330      O3334   1.371       .  S
O3332      H3336   0.992       .  S
O3334      H3335   0.992       .  S
C3337      C3338   1.402       .  A
C3337      C3342   1.404       .  A
C3338      C3339   1.404       .  A
C3338      H3343   1.084       .  S
C3339      C3340   1.410       .  A
C3339      O3344   1.371       .  S
C3340      C3341   1.405       .  A
C3341      C3342   1.398       .  A
C3341      H3345   1.084       .  S
C3342      O3346   1.372       .  S
O3344      H3348   0.992       .  S
O3346      H3347   0.992       .  S
C3349      C3350   1.403       .  A
C3349      C3354   1.401       .  A
C3350      C3351   1.405       .  A
C3350      H3355   1.084       .  S
C3351      C3352   1.414       .  A
C3351      O3356   1.371       .  S
C3352      C3353   1.412       .  A
C3353      C3354   1.396       .  A
C3353      H3357   1.083       .  S
C3354      O3358   1.372       .  S
O3356      H3360   0.992       .  S
O3358      H3359   0.992       .  S
C3361      C3362   1.402       .  A
C3361      C3366   1.412       .  A
C3362      C3363   1.400       .  A
C3362      H3367   1.084       .  S
C3363      C3364   1.414       .  A
C3363      O3368   1.372       .  S
C3364      C3365   1.403       .  A
C3365      C3366   1.402       .  A
C3365      H3369   1.083       .  S
C3366      O3370   1.373       .  S
O3368      H3372   0.992       .  S
O3370      H3371   0.992       .  S
C3373      C3374   1.408       .  A
C3373      C3378   1.408       .  A
C3374      C3375   1.400       .  A
C3374      H3379   1.083       .  S
C3375      C3376   1.408       .  A
C3375      O3380   1.372       .  S
C3376      C3377   1.408       .  A
C3377      C3378   1.401       .  A
C3377      H3381   1.084       .  S
C3378      O3382   1.371       .  S
O3380      H3384   0.992       .  S
O3382      H3383   0.992       .  S
C3385      C3386   1.403       .  A
C3385      C3390   1.414       .  A
C3386      C3387   1.404       .  A
C3386      H3391   1.083       .  S
C3387      C3388   1.413       .  A
C3387      O3392   1.373       .  S
C3388      C3389   1.403       .  A
C3389      C3390   1.399       .  A
C3389      H3393   1.084       .  S
C3390      O3394   1.372       .  S
O3392      H3396   0.992       .  S
O3394      H3395   0.992       .  S
C3397      C3398   1.408       .  A
C3397      C3402   1.409       .  A
C3398      C3399   1.400       .  A
C3398      H3403   1.083       .  S
C3399      C3400   1.408       .  A
C3399      O3404   1.371       .  S
C3400      C3401   1.407       .  A
C3401      C3402   1.401       .  A
C3401      H3405   1.083       .  S
C3402      O3406   1.372       .  S
O3404      H3408   0.992       .  S
O3406      H3407   0.992       .  S
C3409      C3410   1.399       .  A
C3409      C3414   1.408       .  A
C3410      C3411   1.399       .  A
C3410      H3415   1.084       .  S
C3411      C3412   1.412       .  A
C3411      O3416   1.372       .  S
C3412      C3413   1.403       .  A
C3413      C3414   1.402       .  A
C3413      H3417   1.083       .  S
C3414      O3418   1.371       .  S
O3416      H3420   0.992       .  S
O3418      H3419   0.992       .  S
C3421      C3422   1.406       .  A
C3421      C3426   1.407       .  A
C3422      C3423   1.400       .  A
C3422      H3427   1.084       .  S
C3423      C3424   1.409       .  A
C3423      O3428   1.371       .  S
C3424      C3425   1.408       .  A
C3425      C3426   1.401       .  A
C3425      H3429   1.083       .  S
C3426      O3430   1.372       .  S
O3428      H3432   0.992       .  S
O3430      H3431   0.992       .  S
C3433      C3434   1.399       .  A
C3433      C3438   1.407       .  A
C3434      C3435   1.400       .  A
C3434      H3439   1.084       .  S
C3435      C3436   1.413       .  A
C3435      O3440   1.372       .  S
C3436      C3437   1.403       .  A
C3437      C3438   1.401       .  A
C3437      H3441   1.083       .  S
C3438      O3442   1.371       .  S
O3440      H3444   0.992       .  S
O3442      H3443   0.992       .  S
C3445      C3446   1.399       .  A
C3445      C3450   1.403   1_655  A
C3446      C3447   1.399       .  A
C3446      H3451   1.084       .  S
C3447      C3448   1.416       .  A
C3447      O3452   1.371       .  S
C3448      C3449   1.409   1_655  A
C3449      C3450   1.396       .  A
C3449      H3453   1.083       .  S
C3450      O3454   1.372       .  S
O3452      H3456   0.992       .  S
O3454      H3455   0.992       .  S
C3457      C3458   1.405       .  A
C3457      C3462   1.413       .  A
C3458      C3459   1.396       .  A
C3458      H3463   1.083       .  S
C3459      C3460   1.404       .  A
C3459      O3464   1.372       .  S
C3460      C3461   1.398       .  A
C3461      C3462   1.397       .  A
C3461      H3465   1.084       .  S
C3462      O3466   1.372       .  S
O3464      H3468   0.992       .  S
O3466      H3467   0.992       .  S
C3469      C3470   1.407       .  A
C3469      C3474   1.408       .  A
C3470      C3471   1.401       .  A
C3470      H3475   1.084       .  S
C3471      C3472   1.409       .  A
C3471      O3476   1.371       .  S
C3472      C3473   1.408       .  A
C3473      C3474   1.400       .  A
C3473      H3477   1.083       .  S
C3474      O3478   1.372       .  S
O3476      H3480   0.992       .  S
O3478      H3479   0.992       .  S
C3481      C3482   1.402       .  A
C3481      C3486   1.407       .  A
C3482      C3483   1.398       .  A
C3482      H3487   1.084       .  S
C3483      C3484   1.406       .  A
C3483      O3488   1.372       .  S
C3484      C3485   1.400       .  A
C3485      C3486   1.396       .  A
C3485      H3489   1.084       .  S
C3486      O3490   1.372       .  S
O3488      H3492   0.992   1_655  S
O3490      H3491   0.992       .  S
C3493      C3494   1.408       .  A
C3493      C3498   1.408       .  A
C3494      C3495   1.401       .  A
C3494      H3499   1.084       .  S
C3495      C3496   1.409       .  A
C3495      O3500   1.371       .  S
C3496      C3497   1.408       .  A
C3497      C3498   1.401       .  A
C3497      H3501   1.083       .  S
C3498      O3502   1.372       .  S
O3500      H3504   0.992       .  S
O3502      H3503   0.992       .  S
C3505      C3506   1.398   1_556  A
C3505      C3510   1.403       .  A
C3506      C3507   1.395       .  A
C3506      H3511   1.084       .  S
C3507      C3508   1.411       .  A
C3507      O3512   1.372       .  S
C3508      C3509   1.405   1_554  A
C3509      C3510   1.398       .  A
C3509      H3513   1.083       .  S
C3510      O3514   1.371       .  S
O3512      H3516   0.992       .  S
O3514      H3515   0.992   1_455  S
C3517      C3518   1.398       .  A
C3517      C3522   1.403   1_455  A
C3518      C3519   1.396       .  A
C3518      H3523   1.084       .  S
C3519      C3520   1.412       .  A
C3519      O3524   1.372       .  S
C3520      C3521   1.407   1_455  A
C3521      C3522   1.398       .  A
C3521      H3525   1.083       .  S
C3522      O3526   1.372       .  S
O3524      H3528   0.992   1_455  S
O3526      H3527   0.992   1_655  S
C3529      C3530   1.409       .  A
C3529      C3534   1.409       .  A
C3530      C3531   1.400       .  A
C3530      H3535   1.083       .  S
C3531      C3532   1.408       .  A
C3531      O3536   1.371       .  S
C3532      C3533   1.407       .  A
C3533      C3534   1.403       .  A
C3533      H3537   1.083       .  S
C3534      O3538   1.372       .  S
O3536      H3540   0.992       .  S
O3538      H3539   0.992       .  S
C3541      C3542   1.398       .  A
C3541      C3546   1.404       .  A
C3542      C3543   1.396       .  A
C3542      H3547   1.084       .  S
C3543      C3544   1.415       .  A
C3543      O3548   1.372       .  S
C3544      C3545   1.407       .  A
C3545      C3546   1.397       .  A
C3545      H3549   1.083       .  S
C3546      O3550   1.372       .  S
O3548      H3552   0.992       .  S
O3550      H3551   0.992       .  S
C3553      C3554   1.400       .  A
C3553      C3558   1.411       .  A
C3554      C3555   1.400       .  A
C3554      H3559   1.084       .  S
C3555      C3556   1.415       .  A
C3555      O3560   1.372       .  S
C3556      C3557   1.403       .  A
C3557      C3558   1.399       .  A
C3557      H3561   1.083       .  S
C3558      O3562   1.372       .  S
O3560      H3564   0.992       .  S
O3562      H3563   0.992       .  S
C3565      C3566   1.399       .  A
C3565      C3570   1.404       .  A
C3566      C3567   1.397       .  A
C3566      H3571   1.084       .  S
C3567      C3568   1.410       .  A
C3567      O3572   1.372       .  S
C3568      C3569   1.403       .  A
C3569      C3570   1.396       .  A
C3569      H3573   1.084       .  S
C3570      O3574   1.372       .  S
O3572      H3576   0.992       .  S
O3574      H3575   0.992       .  S
C3577      C3578   1.407       .  A
C3577      C3582   1.412       .  A
C3578      C3579   1.396       .  A
C3578      H3583   1.083       .  S
C3579      C3580   1.402       .  A
C3579      O3584   1.372       .  S
C3580      C3581   1.399       .  A
C3581      C3582   1.396       .  A
C3581      H3585   1.084       .  S
C3582      O3586   1.372       .  S
O3584      H3588   0.992       .  S
O3586      H3587   0.992       .  S
C3589      C3590   1.400       .  A
C3589      C3594   1.411       .  A
C3590      C3591   1.400       .  A
C3590      H3595   1.084       .  S
C3591      C3592   1.415       .  A
C3591      O3596   1.372       .  S
C3592      C3593   1.403       .  A
C3593      C3594   1.400       .  A
C3593      H3597   1.083       .  S
C3594      O3598   1.372       .  S
O3596      H3600   0.992       .  S
O3598      H3599   0.992       .  S
C3601      C3602   1.401       .  A
C3601      C3606   1.412       .  A
C3602      C3603   1.401       .  A
C3602      H3607   1.084       .  S
C3603      C3604   1.415       .  A
C3603      O3608   1.372       .  S
C3604      C3605   1.403       .  A
C3605      C3606   1.399       .  A
C3605      H3609   1.083       .  S
C3606      O3610   1.372       .  S
O3608      H3612   0.992       .  S
O3610      H3611   0.992       .  S
C3613      C3614   1.407       .  A
C3613      C3618   1.415       .  A
C3614      C3615   1.396       .  A
C3614      H3619   1.083       .  S
C3615      C3616   1.403       .  A
C3615      O3620   1.372       .  S
C3616      C3617   1.398       .  A
C3617      C3618   1.397       .  A
C3617      H3621   1.084       .  S
C3618      O3622   1.372       .  S
O3620      H3624   0.992       .  S
O3622      H3623   0.992       .  S
C3625      C3626   1.402       .  A
C3625      C3630   1.413       .  A
C3626      C3627   1.400       .  A
C3626      H3631   1.083       .  S
C3627      C3628   1.416       .  A
C3627      O3632   1.372       .  S
C3628      C3629   1.404       .  A
C3629      C3630   1.400       .  A
C3629      H3633   1.083       .  S
C3630      O3634   1.371       .  S
O3632      H3636   0.991       .  S
O3634      H3635   0.992       .  S
C3637      C3638   1.403       .  A
C3637      C3642   1.410       .  A
C3638      C3639   1.403       .  A
C3638      H3643   1.083       .  S
C3639      C3640   1.408       .  A
C3639      O3644   1.371       .  S
C3640      C3641   1.400       .  A
C3641      C3642   1.399       .  A
C3641      H3645   1.084       .  S
C3642      O3646   1.372       .  S
O3644      H3648   0.992       .  S
O3646      H3647   0.992       .  S
C3649      C3650   1.399       .  A
C3649      C3654   1.404       .  A
C3650      C3651   1.399       .  A
C3650      H3655   1.084       .  S
C3651      C3652   1.413       .  A
C3651      O3656   1.372       .  S
C3652      C3653   1.404       .  A
C3653      C3654   1.394       .  A
C3653      H3657   1.084       .  S
C3654      O3658   1.372       .  S
O3656      H3660   0.992   1_455  S
O3658      H3659   0.992       .  S
C3661      C3662   1.404       .  A
C3661      C3666   1.415       .  A
C3662      C3663   1.401       .  A
C3662      H3667   1.083       .  S
C3663      C3664   1.413       .  A
C3663      O3668   1.371       .  S
C3664      C3665   1.403       .  A
C3665      C3666   1.403       .  A
C3665      H3669   1.083       .  S
C3666      O3670   1.373       .  S
O3668      H3672   0.992       .  S
O3670      H3671   0.992       .  S
C3673      C3674   1.399   1_455  A
C3673      C3678   1.404       .  A
C3674      C3675   1.398       .  A
C3674      H3679   1.084       .  S
C3675      C3676   1.411   1_655  A
C3675      O3680   1.372       .  S
C3676      C3677   1.404       .  A
C3677      C3678   1.396       .  A
C3677      H3681   1.084       .  S
C3678      O3682   1.372       .  S
O3680      H3684   0.992   1_655  S
O3682      H3683   0.992   1_455  S
C3685      C3686   1.399   1_554  A
C3685      C3690   1.403       .  A
C3686      C3687   1.396       .  A
C3686      H3691   1.084       .  S
C3687      C3688   1.413       .  A
C3687      O3692   1.372       .  S
C3688      C3689   1.407   1_556  A
C3689      C3690   1.395       .  A
C3689      H3693   1.083       .  S
C3690      O3694   1.372       .  S
O3692      H3696   0.992       .  S
O3694      H3695   0.992       .  S
C3697      C3698   1.403       .  A
C3697      C3702   1.415       .  A
C3698      C3699   1.401       .  A
C3698      H3703   1.083       .  S
C3699      C3700   1.408       .  A
C3699      O3704   1.372       .  S
C3700      C3701   1.399       .  A
C3701      C3702   1.401       .  A
C3701      H3705   1.084       .  S
C3702      O3706   1.372       .  S
O3704      H3708   0.992       .  S
O3706      H3707   0.992       .  S
C3709      C3710   1.403       .  A
C3709      C3714   1.415       .  A
C3710      C3711   1.400       .  A
C3710      H3715   1.083       .  S
C3711      C3712   1.411       .  A
C3711      O3716   1.372       .  S
C3712      C3713   1.401       .  A
C3713      C3714   1.401       .  A
C3713      H3717   1.084       .  S
C3714      O3718   1.372       .  S
O3716      H3720   0.992       .  S
O3718      H3719   0.992       .  S
C3721      C3722   1.397       .  A
C3721      C3726   1.406       .  A
C3722      C3723   1.400       .  A
C3722      H3727   1.084       .  S
C3723      C3724   1.415       .  A
C3723      O3728   1.374       .  S
C3724      C3725   1.407       .  A
C3725      C3726   1.404       .  A
C3725      H3729   1.083       .  S
C3726      O3730   1.371       .  S
O3728      H3732   0.992       .  S
O3730      H3731   0.992       .  S
C3733      C3734   1.408       .  A
C3733      C3738   1.408       .  A
C3734      C3735   1.403       .  A
C3734      H3739   1.083       .  S
C3735      C3736   1.410       .  A
C3735      O3740   1.372       .  S
C3736      C3737   1.408       .  A
C3737      C3738   1.398       .  A
C3737      H3741   1.083       .  S
C3738      O3742   1.371       .  S
O3740      H3744   0.992       .  S
O3742      H3743   0.992       .  S
C3745      C3746   1.401       .  A
C3745      C3750   1.401       .  A
C3746      C3747   1.404       .  A
C3746      H3751   1.084       .  S
C3747      C3748   1.415       .  A
C3747      O3752   1.371       .  S
C3748      C3749   1.412       .  A
C3749      C3750   1.397       .  A
C3749      H3753   1.083       .  S
C3750      O3754   1.372       .  S
O3752      H3756   0.992       .  S
O3754      H3755   0.992       .  S
C3757      C3758   1.408       .  A
C3757      C3762   1.409       .  A
C3758      C3759   1.400       .  A
C3758      H3763   1.083       .  S
C3759      C3760   1.409       .  A
C3759      O3764   1.372       .  S
C3760      C3761   1.408       .  A
C3761      C3762   1.401       .  A
C3761      H3765   1.083       .  S
C3762      O3766   1.371       .  S
O3764      H3768   0.992       .  S
O3766      H3767   0.992       .  S
C3769      C3770   1.407       .  A
C3769      C3774   1.408       .  A
C3770      C3771   1.402       .  A
C3770      H3775   1.083       .  S
C3771      C3772   1.409       .  A
C3771      O3776   1.372       .  S
C3772      C3773   1.409       .  A
C3773      C3774   1.400       .  A
C3773      H3777   1.083       .  S
C3774      O3778   1.371       .  S
O3776      H3780   0.992       .  S
O3778      H3779   0.992       .  S
C3781      C3782   1.408       .  A
C3781      C3786   1.409       .  A
C3782      C3783   1.402       .  A
C3782      H3787   1.083       .  S
C3783      C3784   1.408       .  A
C3783      O3788   1.371       .  S
C3784      C3785   1.407       .  A
C3785      C3786   1.399       .  A
C3785      H3789   1.084       .  S
C3786      O3790   1.371       .  S
O3788      H3792   0.992       .  S
O3790      H3791   0.992       .  S
C3793      C3794   1.407       .  A
C3793      C3798   1.409       .  A
C3794      C3795   1.398       .  A
C3794      H3799   1.083       .  S
C3795      C3796   1.409       .  A
C3795      O3800   1.372       .  S
C3796      C3797   1.408       .  A
C3797      C3798   1.403       .  A
C3797      H3801   1.083       .  S
C3798      O3802   1.371       .  S
O3800      H3804   0.992       .  S
O3802      H3803   0.992       .  S
C3805      C3806   1.402       .  A
C3805      C3810   1.412       .  A
C3806      C3807   1.399       .  A
C3806      H3811   1.084       .  S
C3807      C3808   1.413       .  A
C3807      O3812   1.372       .  S
C3808      C3809   1.404       .  A
C3809      C3810   1.404       .  A
C3809      H3813   1.083       .  S
C3810      O3814   1.373       .  S
O3812      H3816   0.992       .  S
O3814      H3815   0.992       .  S
C3817      C3818   1.414       .  A
C3817      C3822   1.416       .  A
C3818      C3819   1.395       .  A
C3818      H3823   1.082       .  S
C3819      C3820   1.400       .  A
C3819      O3824   1.372       .  S
C3820      C3821   1.404       .  A
C3821      C3822   1.406       .  A
C3821      H3825   1.084       .  S
C3822      O3826   1.370       .  S
O3824      H3828   0.992       .  S
O3826      H3827   0.992       .  S
C3829      C3830   1.404       .  A
C3829      C3834   1.406       .  A
C3830      C3831   1.407       .  A
C3830      H3835   1.083       .  S
C3831      C3832   1.410       .  A
C3831      O3836   1.371       .  S
C3832      C3833   1.403       .  A
C3833      C3834   1.397       .  A
C3833      H3837   1.084       .  S
C3834      O3838   1.372       .  S
O3836      H3840   0.992       .  S
O3838      H3839   0.992       .  S
C3841      C3842   1.405       .  A
C3841      C3846   1.417       .  A
C3842      C3843   1.397       .  A
C3842      H3847   1.081       .  S
C3843      C3844   1.417       .  A
C3843      O3848   1.373       .  S
C3844      C3845   1.406       .  A
C3845      C3846   1.397       .  A
C3845      H3849   1.081       .  S
C3846      O3850   1.371       .  S
O3848      H3852   0.992       .  S
O3850      H3851   0.992       .  S
C3853      C3854   1.406   1_556  A
C3853      C3858   1.414       .  A
C3854      C3855   1.398       .  A
C3854      H3859   1.081       .  S
C3855      C3856   1.417   1_554  A
C3855      O3860   1.373       .  S
C3856      C3857   1.408       .  A
C3857      C3858   1.400       .  A
C3857      H3861   1.080       .  S
C3858      O3862   1.373       .  S
O3860      H3864   0.992       .  S
O3862      H3863   0.992       .  S
C3865      C3866   1.409       .  A
C3865      C3870   1.409       .  A
C3866      C3867   1.399       .  A
C3866      H3871   1.083       .  S
C3867      C3868   1.408       .  A
C3867      O3872   1.372       .  S
C3868      C3869   1.408       .  A
C3869      C3870   1.402       .  A
C3869      H3873   1.083       .  S
C3870      O3874   1.372       .  S
O3872      H3876   0.992       .  S
O3874      H3875   0.992       .  S
C3877      C3878   1.404       .  A
C3877      C3882   1.410       .  A
C3878      C3879   1.396       .  A
C3878      H3883   1.084       .  S
C3879      C3880   1.404       .  A
C3879      O3884   1.372       .  S
C3880      C3881   1.399       .  A
C3881      C3882   1.395       .  A
C3881      H3885   1.084       .  S
C3882      O3886   1.372       .  S
O3884      H3888   0.992       .  S
O3886      H3887   0.992       .  S
C3889      C3890   1.405       .  A
C3889      C3894   1.406       .  A
C3890      C3891   1.401       .  A
C3890      H3895   1.084       .  S
C3891      C3892   1.410       .  A
C3891      O3896   1.371       .  S
C3892      C3893   1.408       .  A
C3893      C3894   1.401       .  A
C3893      H3897   1.083       .  S
C3894      O3898   1.372       .  S
O3896      H3900   0.992       .  S
O3898      H3899   0.992       .  S
C3901      C3902   1.410       .  A
C3901      C3906   1.410       .  A
C3902      C3903   1.401       .  A
C3902      H3907   1.083       .  S
C3903      C3904   1.408       .  A
C3903      O3908   1.371       .  S
C3904      C3905   1.407       .  A
C3905      C3906   1.402       .  A
C3905      H3909   1.083       .  S
C3906      O3910   1.372       .  S
O3908      H3912   0.992       .  S
O3910      H3911   0.992       .  S
C3913      C3914   1.402       .  A
C3913      C3918   1.413       .  A
C3914      C3915   1.401       .  A
C3914      H3919   1.083       .  S
C3915      C3916   1.414       .  A
C3915      O3920   1.372       .  S
C3916      C3917   1.403       .  A
C3917      C3918   1.402       .  A
C3917      H3921   1.083       .  S
C3918      O3922   1.373       .  S
O3920      H3924   0.992       .  S
O3922      H3923   0.992       .  S
C3925      C3926   1.408       .  A
C3925      C3930   1.409       .  A
C3926      C3927   1.400       .  A
C3926      H3931   1.083       .  S
C3927      C3928   1.409       .  A
C3927      O3932   1.372       .  S
C3928      C3929   1.408       .  A
C3929      C3930   1.402       .  A
C3929      H3933   1.083       .  S
C3930      O3934   1.371       .  S
O3932      H3936   0.992       .  S
O3934      H3935   0.992       .  S
C3937      C3938   1.404       .  A
C3937      C3942   1.411       .  A
C3938      C3939   1.397       .  A
C3938      H3943   1.084       .  S
C3939      C3940   1.404       .  A
C3939      O3944   1.372       .  S
C3940      C3941   1.399       .  A
C3941      C3942   1.397       .  A
C3941      H3945   1.084       .  S
C3942      O3946   1.372       .  S
O3944      H3948   0.992       .  S
O3946      H3947   0.992       .  S
C3949      C3950   1.403       .  A
C3949      C3954   1.408       .  A
C3950      C3951   1.397       .  A
C3950      H3955   1.084       .  S
C3951      C3952   1.405       .  A
C3951      O3956   1.372       .  S
C3952      C3953   1.400       .  A
C3953      C3954   1.396       .  A
C3953      H3957   1.084       .  S
C3954      O3958   1.372       .  S
O3956      H3960   0.992       .  S
O3958      H3959   0.992       .  S
C3961      C3962   1.404       .  A
C3961      C3966   1.410       .  A
C3962      C3963   1.397       .  A
C3962      H3967   1.084       .  S
C3963      C3964   1.404       .  A
C3963      O3968   1.372       .  S
C3964      C3965   1.399       .  A
C3965      C3966   1.397       .  A
C3965      H3969   1.084       .  S
C3966      O3970   1.372       .  S
O3968      H3972   0.992       .  S
O3970      H3971   0.992   1_655  S
C3973      C3974   1.402       .  A
C3973      C3978   1.402       .  A
C3974      C3975   1.405       .  A
C3974      H3979   1.084       .  S
C3975      C3976   1.413       .  A
C3975      O3980   1.371       .  S
C3976      C3977   1.409       .  A
C3977      C3978   1.397       .  A
C3977      H3981   1.083       .  S
C3978      O3982   1.372       .  S
O3980      H3984   0.992       .  S
O3982      H3983   0.992       .  S
C3985      C3986   1.404       .  A
C3985      C3990   1.409       .  A
C3986      C3987   1.406       .  A
C3986      H3991   1.083       .  S
C3987      C3988   1.408       .  A
C3987      O3992   1.371       .  S
C3988      C3989   1.401       .  A
C3989      C3990   1.398       .  A
C3989      H3993   1.084       .  S
C3990      O3994   1.372       .  S
O3992      H3996   0.992       .  S
O3994      H3995   0.992       .  S
C3997      C3998   1.403       .  A
C3997      C4002   1.414       .  A
C3998      C3999   1.403       .  A
C3998      H4003   1.083       .  S
C3999      C4000   1.414       .  A
C3999      O4004   1.373       .  S
C4000      C4001   1.403       .  A
C4001      C4002   1.402       .  A
C4001      H4005   1.083       .  S
C4002      O4006   1.371       .  S
O4004      H4008   0.992       .  S
O4006      H4007   0.992       .  S
C4009      C4010   1.408       .  A
C4009      C4014   1.407       .  A
C4010      C4011   1.404       .  A
C4010      H4015   1.083       .  S
C4011      C4012   1.411       .  A
C4011      O4016   1.372       .  S
C4012      C4013   1.410       .  A
C4013      C4014   1.401       .  A
C4013      H4017   1.083       .  S
C4014      O4018   1.371       .  S
O4016      H4020   0.992       .  S
O4018      H4019   0.992       .  S
C4021      C4022   1.404       .  A
C4021      C4026   1.414       .  A
C4022      C4023   1.401       .  A
C4022      H4027   1.083       .  S
C4023      C4024   1.409       .  A
C4023      O4028   1.372       .  S
C4024      C4025   1.400       .  A
C4025      C4026   1.400       .  A
C4025      H4029   1.084       .  S
C4026      O4030   1.372       .  S
O4028      H4032   0.992       .  S
O4030      H4031   0.992       .  S
C4033      C4034   1.402       .  A
C4033      C4038   1.401       .  A
C4034      C4035   1.405       .  A
C4034      H4039   1.084       .  S
C4035      C4036   1.415       .  A
C4035      O4040   1.371       .  S
C4036      C4037   1.412       .  A
C4037      C4038   1.397       .  A
C4037      H4041   1.083       .  S
C4038      O4042   1.372       .  S
O4040      H4044   0.992       .  S
O4042      H4043   0.992       .  S
C4045      C4046   1.402       .  A
C4045      C4050   1.401       .  A
C4046      C4047   1.405       .  A
C4046      H4051   1.084       .  S
C4047      C4048   1.415       .  A
C4047      O4052   1.371       .  S
C4048      C4049   1.411       .  A
C4049      C4050   1.397       .  A
C4049      H4053   1.083       .  S
C4050      O4054   1.372       .  S
O4052      H4056   0.992       .  S
O4054      H4055   0.992       .  S
C4057      C4058   1.407       .  A
C4057      C4062   1.408       .  A
C4058      C4059   1.402       .  A
C4058      H4063   1.083       .  S
C4059      C4060   1.410       .  A
C4059      O4064   1.372       .  S
C4060      C4061   1.409       .  A
C4061      C4062   1.400       .  A
C4061      H4065   1.083       .  S
C4062      O4066   1.371       .  S
O4064      H4068   0.992       .  S
O4066      H4067   0.992       .  S
C4069      C4070   1.407       .  A
C4069      C4074   1.408       .  A
C4070      C4071   1.400       .  A
C4070      H4075   1.084       .  S
C4071      C4072   1.409       .  A
C4071      O4076   1.371       .  S
C4072      C4073   1.408       .  A
C4073      C4074   1.401       .  A
C4073      H4077   1.083       .  S
C4074      O4078   1.372       .  S
O4076      H4080   0.992       .  S
O4078      H4079   0.992       .  S
C4081      C4082   1.402       .  A
C4081      C4086   1.413       .  A
C4082      C4083   1.401       .  A
C4082      H4087   1.083       .  S
C4083      C4084   1.415       .  A
C4083      O4088   1.371       .  S
C4084      C4085   1.402       .  A
C4085      C4086   1.402       .  A
C4085      H4089   1.083       .  S
C4086      O4090   1.373       .  S
O4088      H4092   0.992       .  S
O4090      H4091   0.992       .  S
C4093      C4094   1.400       .  A
C4093      C4098   1.405       .  A
C4094      C4095   1.398       .  A
C4094      H4099   1.084   1_545  S
C4095      C4096   1.409       .  A
C4095      O4100   1.372   1_545  S
C4096      C4097   1.402       .  A
C4097      C4098   1.396       .  A
C4097      H4101   1.084       .  S
C4098      O4102   1.372       .  S
O4100      H4104   0.992       .  S
O4102      H4103   0.992       .  S
C4105      C4106   1.405       .  A
C4105      C4110   1.412       .  A
C4106      C4107   1.398       .  A
C4106      H4111   1.084       .  S
C4107      C4108   1.404       .  A
C4107      O4112   1.372       .  S
C4108      C4109   1.398       .  A
C4109      C4110   1.396       .  A
C4109      H4113   1.084       .  S
C4110      O4114   1.372       .  S
O4112      H4116   0.992       .  S
O4114      H4115   0.992       .  S
C4117      C4118   1.399       .  A
C4117      C4122   1.402       .  A
C4118      C4119   1.395       .  A
C4118      H4123   1.084       .  S
C4119      C4120   1.411       .  A
C4119      O4124   1.372       .  S
C4120      C4121   1.408       .  A
C4121      C4122   1.398       .  A
C4121      H4125   1.083       .  S
C4122      O4126   1.371       .  S
O4124      H4128   0.992       .  S
O4126      H4127   0.992       .  S
C4129      C4130   1.407       .  A
C4129      C4134   1.408       .  A
C4130      C4131   1.401       .  A
C4130      H4135   1.084       .  S
C4131      C4132   1.409       .  A
C4131      O4136   1.371       .  S
C4132      C4133   1.408       .  A
C4133      C4134   1.400       .  A
C4133      H4137   1.083       .  S
C4134      O4138   1.372       .  S
O4136      H4140   0.992       .  S
O4138      H4139   0.992       .  S
C4141      C4142   1.404       .  A
C4141      C4146   1.404       .  A
C4142      C4143   1.404       .  A
C4142      H4147   1.083       .  S
C4143      C4144   1.409       .  A
C4143      O4148   1.371       .  S
C4144      C4145   1.405       .  A
C4145      C4146   1.398       .  A
C4145      H4149   1.084       .  S
C4146      O4150   1.372       .  S
O4148      H4152   0.992       .  S
O4150      H4151   0.992       .  S
C4153      C4154   1.399       .  A
C4153      C4158   1.403       .  A
C4154      C4155   1.397       .  A
C4154      H4159   1.084       .  S
C4155      C4156   1.411       .  A
C4155      O4160   1.372       .  S
C4156      C4157   1.405       .  A
C4157      C4158   1.397       .  A
C4157      H4161   1.084       .  S
C4158      O4162   1.371       .  S
O4160      H4164   0.992       .  S
O4162      H4163   0.992       .  S
C4165      C4166   1.405       .  A
C4165      C4170   1.406       .  A
C4166      C4167   1.400       .  A
C4166      H4171   1.084       .  S
C4167      C4168   1.410       .  A
C4167      O4172   1.371       .  S
C4168      C4169   1.409       .  A
C4169      C4170   1.401       .  A
C4169      H4173   1.083       .  S
C4170      O4174   1.372       .  S
O4172      H4176   0.992       .  S
O4174      H4175   0.992       .  S
C4177      C4178   1.407       .  A
C4177      C4182   1.412       .  A
C4178      C4179   1.398       .  A
C4178      H4183   1.084       .  S
C4179      C4180   1.403       .  A
C4179      O4184   1.372       .  S
C4180      C4181   1.401       .  A
C4181      C4182   1.404       .  A
C4181      H4185   1.084       .  S
C4182      O4186   1.371       .  S
O4184      H4188   0.992       .  S
O4186      H4187   0.992       .  S
C4189      C4190   1.408       .  A
C4189      C4194   1.415       .  A
C4190      C4191   1.397       .  A
C4190      H4195   1.083       .  S
C4191      C4192   1.403       .  A
C4191      O4196   1.372       .  S
C4192      C4193   1.399       .  A
C4193      C4194   1.397       .  A
C4193      H4197   1.084       .  S
C4194      O4198   1.371       .  S
O4196      H4200   0.992       .  S
O4198      H4199   0.992       .  S
C4201      C4202   1.403       .  A
C4201      C4206   1.414       .  A
C4202      C4203   1.403       .  A
C4202      H4207   1.083       .  S
C4203      C4204   1.414       .  A
C4203      O4208   1.373       .  S
C4204      C4205   1.403       .  A
C4205      C4206   1.401       .  A
C4205      H4209   1.083       .  S
C4206      O4210   1.371       .  S
O4208      H4212   0.992       .  S
O4210      H4211   0.992       .  S
C4213      C4214   1.399       .  A
C4213      C4218   1.404       .  A
C4214      C4215   1.399       .  A
C4214      H4219   1.084       .  S
C4215      C4216   1.413       .  A
C4215      O4220   1.372       .  S
C4216      C4217   1.405       .  A
C4217      C4218   1.396       .  A
C4217      H4221   1.083       .  S
C4218      O4222   1.372       .  S
O4220      H4224   0.992       .  S
O4222      H4223   0.992       .  S
C4225      C4226   1.410       .  A
C4225      C4230   1.411       .  A
C4226      C4227   1.401       .  A
C4226      H4231   1.083       .  S
C4227      C4228   1.408       .  A
C4227      O4232   1.372       .  S
C4228      C4229   1.407       .  A
C4229      C4230   1.402       .  A
C4229      H4233   1.083       .  S
C4230      O4234   1.372       .  S
O4232      H4236   0.992       .  S
O4234      H4235   0.992       .  S
C4237      C4238   1.406       .  A
C4237      C4242   1.408       .  A
C4238      C4239   1.399       .  A
C4238      H4243   1.084       .  S
C4239      C4240   1.409       .  A
C4239      O4244   1.371       .  S
C4240      C4241   1.408       .  A
C4241      C4242   1.402       .  A
C4241      H4245   1.083       .  S
C4242      O4246   1.372       .  S
O4244      H4248   0.992       .  S
O4246      H4247   0.992       .  S
C4249      C4250   1.408       .  A
C4249      C4254   1.414       .  A
C4250      C4251   1.399       .  A
C4250      H4255   1.083       .  S
C4251      C4252   1.403       .  A
C4251      O4256   1.371       .  S
C4252      C4253   1.398       .  A
C4253      C4254   1.395       .  A
C4253      H4257   1.084       .  S
C4254      O4258   1.372       .  S
O4256      H4260   0.992       .  S
O4258      H4259   0.992       .  S
C4261      C4262   1.407       .  A
C4261      C4266   1.414   1_554  A
C4262      C4263   1.396       .  A
C4262      H4267   1.083       .  S
C4263      C4264   1.403   1_554  A
C4263      O4268   1.372       .  S
C4264      C4265   1.399       .  A
C4265      C4266   1.398       .  A
C4265      H4269   1.084       .  S
C4266      O4270   1.371       .  S
O4268      H4272   0.992   1_554  S
O4270      H4271   0.992   1_556  S
C4273      C4274   1.403       .  A
C4273      C4278   1.413       .  A
C4274      C4275   1.401       .  A
C4274      H4279   1.083       .  S
C4275      C4276   1.415       .  A
C4275      O4280   1.372       .  S
C4276      C4277   1.403       .  A
C4277      C4278   1.402       .  A
C4277      H4281   1.083       .  S
C4278      O4282   1.373       .  S
O4280      H4284   0.992       .  S
O4282      H4283   0.992       .  S
C4285      C4286   1.399       .  A
C4285      C4290   1.404       .  A
C4286      C4287   1.398       .  A
C4286      H4291   1.084       .  S
C4287      C4288   1.411       .  A
C4287      O4292   1.372       .  S
C4288      C4289   1.405       .  A
C4289      C4290   1.396       .  A
C4289      H4293   1.084       .  S
C4290      O4294   1.372       .  S
O4292      H4296   0.992       .  S
O4294      H4295   0.992       .  S
C4297      C4298   1.405       .  A
C4297      C4302   1.414       .  A
C4298      C4299   1.403       .  A
C4298      H4303   1.083       .  S
C4299      C4300   1.408       .  A
C4299      O4304   1.371       .  S
C4300      C4301   1.399       .  A
C4301      C4302   1.399       .  A
C4301      H4305   1.084       .  S
C4302      O4306   1.372       .  S
O4304      H4308   0.992       .  S
O4306      H4307   0.992       .  S
C4309      C4310   1.403       .  A
C4309      C4314   1.410       .  A
C4310      C4311   1.403       .  A
C4310      H4315   1.084       .  S
C4311      C4312   1.407       .  A
C4311      O4316   1.371       .  S
C4312      C4313   1.400       .  A
C4313      C4314   1.400       .  A
C4313      H4317   1.084       .  S
C4314      O4318   1.372       .  S
O4316      H4320   0.992       .  S
O4318      H4319   0.992       .  S
C4321      C4322   1.407       .  A
C4321      C4326   1.409       .  A
C4322      C4323   1.402       .  A
C4322      H4327   1.083       .  S
C4323      C4324   1.409       .  A
C4323      O4328   1.372       .  S
C4324      C4325   1.408       .  A
C4325      C4326   1.400       .  A
C4325      H4329   1.084       .  S
C4326      O4330   1.371       .  S
O4328      H4332   0.992       .  S
O4330      H4331   0.992       .  S
C4333      C4334   1.407       .  A
C4333      C4338   1.408       .  A
C4334      C4335   1.401       .  A
C4334      H4339   1.083       .  S
C4335      C4336   1.409       .  A
C4335      O4340   1.372       .  S
C4336      C4337   1.409       .  A
C4337      C4338   1.400       .  A
C4337      H4341   1.083       .  S
C4338      O4342   1.371       .  S
O4340      H4344   0.992       .  S
O4342      H4343   0.992       .  S
C4345      C4346   1.400       .  A
C4345      C4350   1.409       .  A
C4346      C4347   1.400       .  A
C4346      H4351   1.084       .  S
C4347      C4348   1.414       .  A
C4347      O4352   1.372       .  S
C4348      C4349   1.404       .  A
C4349      C4350   1.401       .  A
C4349      H4353   1.083       .  S
C4350      O4354   1.371       .  S
O4352      H4356   0.992       .  S
O4354      H4355   0.992       .  S
C4357      C4358   1.408       .  A
C4357      C4362   1.409       .  A
C4358      C4359   1.402       .  A
C4358      H4363   1.083       .  S
C4359      C4360   1.408       .  A
C4359      O4364   1.372       .  S
C4360      C4361   1.408       .  A
C4361      C4362   1.401       .  A
C4361      H4365   1.084       .  S
C4362      O4366   1.371       .  S
O4364      H4368   0.992       .  S
O4366      H4367   0.992       .  S
C4369      C4370   1.403       .  A
C4369      C4374   1.415       .  A
C4370      C4371   1.400       .  A
C4370      H4375   1.083       .  S
C4371      C4372   1.411       .  A
C4371      O4376   1.372       .  S
C4372      C4373   1.401       .  A
C4373      C4374   1.401       .  A
C4373      H4377   1.084       .  S
C4374      O4378   1.372       .  S
O4376      H4380   0.992       .  S
O4378      H4379   0.992       .  S
C4381      C4382   1.400       .  A
C4381      C4386   1.410       .  A
C4382      C4383   1.401       .  A
C4382      H4387   1.084       .  S
C4383      C4384   1.415       .  A
C4383      O4388   1.372       .  S
C4384      C4385   1.404       .  A
C4385      C4386   1.401       .  A
C4385      H4389   1.083       .  S
C4386      O4390   1.372       .  S
O4388      H4392   0.992       .  S
O4390      H4391   0.992       .  S
C4393      C4394   1.409       .  A
C4393      C4398   1.409       .  A
C4394      C4395   1.402       .  A
C4394      H4399   1.083       .  S
C4395      C4396   1.408       .  A
C4395      O4400   1.371       .  S
C4396      C4397   1.408       .  A
C4397      C4398   1.400       .  A
C4397      H4401   1.084       .  S
C4398      O4402   1.371       .  S
O4400      H4404   0.992       .  S
O4402      H4403   0.992       .  S
C4405      C4406   1.402       .  A
C4405      C4410   1.405       .  A
C4406      C4407   1.403       .  A
C4406      H4411   1.084       .  S
C4407      C4408   1.408       .  A
C4407      O4412   1.371       .  S
C4408      C4409   1.403       .  A
C4409      C4410   1.397       .  A
C4409      H4413   1.084       .  S
C4410      O4414   1.372       .  S
O4412      H4416   0.992       .  S
O4414      H4415   0.992       .  S
C4417      C4418   1.404       .  A
C4417      C4422   1.410       .  A
C4418      C4419   1.404       .  A
C4418      H4423   1.083       .  S
C4419      C4420   1.408       .  A
C4419      O4424   1.371       .  S
C4420      C4421   1.400       .  A
C4421      C4422   1.400       .  A
C4421      H4425   1.084       .  S
C4422      O4426   1.372       .  S
O4424      H4428   0.992       .  S
O4426      H4427   0.992       .  S
C4429      C4430   1.407       .  A
C4429      C4434   1.414       .  A
C4430      C4431   1.397       .  A
C4430      H4435   1.083       .  S
C4431      C4432   1.403       .  A
C4431      O4436   1.372       .  S
C4432      C4433   1.399       .  A
C4433      C4434   1.398       .  A
C4433      H4437   1.084       .  S
C4434      O4438   1.372       .  S
O4436      H4440   0.992       .  S
O4438      H4439   0.992       .  S
C4441      C4442   1.400       .  A
C4441      C4446   1.407       .  A
C4442      C4443   1.400       .  A
C4442      H4447   1.084       .  S
C4443      C4444   1.412       .  A
C4443      O4448   1.372       .  S
C4444      C4445   1.404       .  A
C4445      C4446   1.404       .  A
C4445      H4449   1.083       .  S
C4446      O4450   1.371       .  S
O4448      H4452   0.992       .  S
O4450      H4451   0.992       .  S
C4453      C4454   1.399       .  A
C4453      C4458   1.404       .  A
C4454      C4455   1.397       .  A
C4454      H4459   1.084       .  S
C4455      C4456   1.410       .  A
C4455      O4460   1.372       .  S
C4456      C4457   1.405       .  A
C4457      C4458   1.398       .  A
C4457      H4461   1.084       .  S
C4458      O4462   1.372       .  S
O4460      H4464   0.992       .  S
O4462      H4463   0.992   1_545  S
C4465      C4466   1.407       .  A
C4465      C4470   1.407       .  A
C4466      C4467   1.401       .  A
C4466      H4471   1.084       .  S
C4467      C4468   1.409       .  A
C4467      O4472   1.371       .  S
C4468      C4469   1.409       .  A
C4469      C4470   1.402       .  A
C4469      H4473   1.083       .  S
C4470      O4474   1.372       .  S
O4472      H4476   0.992       .  S
O4474      H4475   0.992       .  S
C4477      C4478   1.403       .  A
C4477      C4482   1.405       .  A
C4478      C4479   1.403       .  A
C4478      H4483   1.084       .  S
C4479      C4480   1.409       .  A
C4479      O4484   1.371       .  S
C4480      C4481   1.406       .  A
C4481      C4482   1.401       .  A
C4481      H4485   1.084       .  S
C4482      O4486   1.372       .  S
O4484      H4488   0.992       .  S
O4486      H4487   0.992       .  S
C4489      C4490   1.398   1_455  A
C4489      C4494   1.403       .  A
C4490      C4491   1.397       .  A
C4490      H4495   1.084       .  S
C4491      C4492   1.415       .  A
C4491      O4496   1.372       .  S
C4492      C4493   1.408   1_655  A
C4493      C4494   1.398       .  A
C4493      H4497   1.083       .  S
C4494      O4498   1.372       .  S
O4496      H4500   0.992       .  S
O4498      H4499   0.992       .  S
C4501      C4502   1.405       .  A
C4501      C4506   1.409       .  A
C4502      C4503   1.400       .  A
C4502      H4507   1.084       .  S
C4503      C4504   1.405       .  A
C4503      O4508   1.372       .  S
C4504      C4505   1.403       .  A
C4505      C4506   1.404       .  A
C4505      H4509   1.084       .  S
C4506      O4510   1.371       .  S
O4508      H4512   0.992       .  S
O4510      H4511   0.992       .  S
C4513      C4514   1.396       .  A
C4513      C4518   1.406       .  A
C4514      C4515   1.400       .  A
C4514      H4519   1.084       .  S
C4515      C4516   1.417       .  A
C4515      O4520   1.374       .  S
C4516      C4517   1.407       .  A
C4517      C4518   1.404       .  A
C4517      H4521   1.083       .  S
C4518      O4522   1.371       .  S
O4520      H4524   0.992       .  S
O4522      H4523   0.992       .  S
C4525      C4526   1.403       .  A
C4525      C4530   1.405       .  A
C4526      C4527   1.402       .  A
C4526      H4531   1.084       .  S
C4527      C4528   1.408       .  A
C4527      O4532   1.371       .  S
C4528      C4529   1.405       .  A
C4529      C4530   1.399       .  A
C4529      H4533   1.084       .  S
C4530      O4534   1.372       .  S
O4532      H4536   0.992       .  S
O4534      H4535   0.992       .  S
C4537      C4538   1.406   1_545  A
C4537      C4542   1.415       .  A
C4538      C4539   1.395       .  A
C4538      H4543   1.083       .  S
C4539      C4540   1.404   1_565  A
C4539      O4544   1.372       .  S
C4540      C4541   1.398       .  A
C4541      C4542   1.399       .  A
C4541      H4545   1.084       .  S
C4542      O4546   1.371       .  S
O4544      H4548   0.992       .  S
O4546      H4547   0.992       .  S
C4549      C4550   1.399       .  A
C4549      C4554   1.407       .  A
C4550      C4551   1.397       .  A
C4550      H4555   1.084       .  S
C4551      C4552   1.410       .  A
C4551      O4556   1.372       .  S
C4552      C4553   1.405       .  A
C4553      C4554   1.403       .  A
C4553      H4557   1.083       .  S
C4554      O4558   1.371       .  S
O4556      H4560   0.992       .  S
O4558      H4559   0.992       .  S
C4561      C4562   1.406       .  A
C4561      C4566   1.410       .  A
C4562      C4563   1.397       .  A
C4562      H4567   1.083       .  S
C4563      C4564   1.406       .  A
C4563      O4568   1.372       .  S
C4564      C4565   1.404       .  A
C4565      C4566   1.402       .  A
C4565      H4569   1.084       .  S
C4566      O4570   1.371       .  S
O4568      H4572   0.992       .  S
O4570      H4571   0.992       .  S
C4573      C4574   1.407       .  A
C4573      C4578   1.413       .  A
C4574      C4575   1.400       .  A
C4574      H4579   1.082       .  S
C4575      C4576   1.415       .  A
C4575      O4580   1.373       .  S
C4576      C4577   1.408       .  A
C4577      C4578   1.395       .  A
C4577      H4581   1.081       .  S
C4578      O4582   1.371       .  S
O4580      H4584   0.992       .  S
O4582      H4583   0.992       .  S
C4585      C4586   1.409       .  A
C4585      C4590   1.418       .  A
C4586      C4587   1.404       .  A
C4586      H4591   1.083       .  S
C4587      C4588   1.405       .  A
C4587      O4592   1.372       .  S
C4588      C4589   1.396       .  A
C4589      C4590   1.401       .  A
C4589      H4593   1.084       .  S
C4590      O4594   1.374       .  S
O4592      H4596   0.992       .  S
O4594      H4595   0.992       .  S
C4597      C4598   1.406       .  A
C4597      C4602   1.411       .  A
C4598      C4599   1.397       .  A
C4598      H4603   1.084       .  S
C4599      C4600   1.404       .  A
C4599      O4604   1.372       .  S
C4600      C4601   1.403       .  A
C4601      C4602   1.405       .  A
C4601      H4605   1.084       .  S
C4602      O4606   1.371       .  S
O4604      H4608   0.992       .  S
O4606      H4607   0.992       .  S
C4609      C4610   1.398       .  A
C4609      C4614   1.404   1_556  A
C4610      C4611   1.398       .  A
C4610      H4615   1.084       .  S
C4611      C4612   1.416       .  A
C4611      O4616   1.372       .  S
C4612      C4613   1.406   1_556  A
C4613      C4614   1.395       .  A
C4613      H4617   1.083       .  S
C4614      O4618   1.372       .  S
O4616      H4620   0.992       .  S
O4618      H4619   0.992       .  S
C4621      C4622   1.402       .  A
C4621      C4626   1.414       .  A
C4622      C4623   1.401       .  A
C4622      H4627   1.083       .  S
C4623      C4624   1.413       .  A
C4623      O4628   1.373       .  S
C4624      C4625   1.403       .  A
C4625      C4626   1.402       .  A
C4625      H4629   1.083       .  S
C4626      O4630   1.371       .  S
O4628      H4632   0.992       .  S
O4630      H4631   0.992       .  S
C4633      C4634   1.408       .  A
C4633      C4638   1.408       .  A
C4634      C4635   1.403       .  A
C4634      H4639   1.083       .  S
C4635      C4636   1.409       .  A
C4635      O4640   1.372       .  S
C4636      C4637   1.409       .  A
C4637      C4638   1.400       .  A
C4637      H4641   1.083       .  S
C4638      O4642   1.371       .  S
O4640      H4644   0.992       .  S
O4642      H4643   0.992       .  S
C4645      C4646   1.408       .  A
C4645      C4650   1.409       .  A
C4646      C4647   1.400       .  A
C4646      H4651   1.083       .  S
C4647      C4648   1.404       .  A
C4647      O4652   1.372       .  S
C4648      C4649   1.404       .  A
C4649      C4650   1.402       .  A
C4649      H4653   1.084       .  S
C4650      O4654   1.371       .  S
O4652      H4656   0.992       .  S
O4654      H4655   0.992       .  S
C4657      C4658   1.396       .  A
C4657      C4662   1.406       .  A
C4658      C4659   1.400       .  A
C4658      H4663   1.084       .  S
C4659      C4660   1.418       .  A
C4659      O4664   1.374       .  S
C4660      C4661   1.408       .  A
C4661      C4662   1.404       .  A
C4661      H4665   1.083       .  S
C4662      O4666   1.371       .  S
O4664      H4668   0.992       .  S
O4666      H4667   0.992       .  S
C4669      C4670   1.408       .  A
C4669      C4674   1.417       .  A
C4670      C4671   1.403       .  A
C4670      H4675   1.083       .  S
C4671      C4672   1.405       .  A
C4671      O4676   1.371       .  S
C4672      C4673   1.396       .  A
C4673      C4674   1.400       .  A
C4673      H4677   1.084       .  S
C4674      O4678   1.374       .  S
O4676      H4680   0.992       .  S
O4678      H4679   0.992       .  S
C4681      C4682   1.404       .  A
C4681      C4686   1.415       .  A
C4682      C4683   1.400       .  A
C4682      H4687   1.083       .  S
C4683      C4684   1.412       .  A
C4683      O4688   1.372       .  S
C4684      C4685   1.402       .  A
C4685      C4686   1.402       .  A
C4685      H4689   1.084       .  S
C4686      O4690   1.372       .  S
O4688      H4692   0.992       .  S
O4690      H4691   0.992       .  S
C4693      C4694   1.404       .  A
C4693      C4698   1.416       .  A
C4694      C4695   1.401       .  A
C4694      H4699   1.083       .  S
C4695      C4696   1.414       .  A
C4695      O4700   1.371       .  S
C4696      C4697   1.402       .  A
C4697      C4698   1.400       .  A
C4697      H4701   1.083       .  S
C4698      O4702   1.372       .  S
O4700      H4704   0.992       .  S
O4702      H4703   0.992       .  S
C4705      C4706   1.408       .  A
C4705      C4710   1.409       .  A
C4706      C4707   1.400       .  A
C4706      H4711   1.084       .  S
C4707      C4708   1.408       .  A
C4707      O4712   1.371       .  S
C4708      C4709   1.408       .  A
C4709      C4710   1.401       .  A
C4709      H4713   1.083       .  S
C4710      O4714   1.371       .  S
O4712      H4716   0.992       .  S
O4714      H4715   0.992       .  S
C4717      C4718   1.404       .  A
C4717      C4722   1.405       .  A
C4718      C4719   1.400       .  A
C4718      H4723   1.084       .  S
C4719      C4720   1.409       .  A
C4719      O4724   1.371       .  S
C4720      C4721   1.407       .  A
C4721      C4722   1.399       .  A
C4721      H4725   1.084       .  S
C4722      O4726   1.372       .  S
O4724      H4728   0.992       .  S
O4726      H4727   0.992       .  S
C4729      C4730   1.407       .  A
C4729      C4734   1.409       .  A
C4730      C4731   1.400       .  A
C4730      H4735   1.084       .  S
C4731      C4732   1.409       .  A
C4731      O4736   1.371       .  S
C4732      C4733   1.407       .  A
C4733      C4734   1.401       .  A
C4733      H4737   1.083       .  S
C4734      O4738   1.372       .  S
O4736      H4740   0.992       .  S
O4738      H4739   0.992       .  S
C4741      C4742   1.398       .  A
C4741      C4746   1.403       .  A
C4742      C4743   1.396       .  A
C4742      H4747   1.084       .  S
C4743      C4744   1.414       .  A
C4743      O4748   1.372       .  S
C4744      C4745   1.408       .  A
C4745      C4746   1.398       .  A
C4745      H4749   1.083       .  S
C4746      O4750   1.372       .  S
O4748      H4752   0.992       .  S
O4750      H4751   0.992       .  S
C4753      C4754   1.402       .  A
C4753      C4758   1.405       .  A
C4754      C4755   1.398       .  A
C4754      H4759   1.084       .  S
C4755      C4756   1.406       .  A
C4755      O4760   1.372       .  S
C4756      C4757   1.402       .  A
C4757      C4758   1.396       .  A
C4757      H4761   1.084       .  S
C4758      O4762   1.372       .  S
O4760      H4764   0.992       .  S
O4762      H4763   0.992       .  S
C4765      C4766   1.399       .  A
C4765      C4770   1.403       .  A
C4766      C4767   1.397       .  A
C4766      H4771   1.084       .  S
C4767      C4768   1.411       .  A
C4767      O4772   1.372       .  S
C4768      C4769   1.406       .  A
C4769      C4770   1.396       .  A
C4769      H4773   1.084       .  S
C4770      O4774   1.372       .  S
O4772      H4776   0.992       .  S
O4774      H4775   0.992       .  S
C4777      C4778   1.412       .  A
C4777      C4782   1.416       .  A
C4778      C4779   1.397       .  A
C4778      H4783   1.083       .  S
C4779      C4780   1.401       .  A
C4779      O4784   1.372       .  S
C4780      C4781   1.401       .  A
C4781      C4782   1.404       .  A
C4781      H4785   1.084       .  S
C4782      O4786   1.371       .  S
O4784      H4788   0.992       .  S
O4786      H4787   0.992       .  S
C4789      C4790   1.404       .  A
C4789      C4794   1.405       .  A
C4790      C4791   1.403       .  A
C4790      H4795   1.084       .  S
C4791      C4792   1.410       .  A
C4791      O4796   1.371       .  S
C4792      C4793   1.407       .  A
C4793      C4794   1.399       .  A
C4793      H4797   1.083       .  S
C4794      O4798   1.372       .  S
O4796      H4800   0.992       .  S
O4798      H4799   0.992       .  S
C4801      C4802   1.399       .  A
C4801      C4806   1.403       .  A
C4802      C4803   1.398       .  A
C4802      H4807   1.084       .  S
C4803      C4804   1.413       .  A
C4803      O4808   1.372       .  S
C4804      C4805   1.406       .  A
C4805      C4806   1.396       .  A
C4805      H4809   1.083       .  S
C4806      O4810   1.372       .  S
O4808      H4812   0.992       .  S
O4810      H4811   0.992       .  S
C4813      C4814   1.407       .  A
C4813      C4818   1.408       .  A
C4814      C4815   1.400       .  A
C4814      H4819   1.084       .  S
C4815      C4816   1.409       .  A
C4815      O4820   1.371       .  S
C4816      C4817   1.408       .  A
C4817      C4818   1.403       .  A
C4817      H4821   1.083       .  S
C4818      O4822   1.372       .  S
O4820      H4824   0.992       .  S
O4822      H4823   0.992       .  S
C4825      C4826   1.406       .  A
C4825      C4830   1.415       .  A
C4826      C4827   1.404       .  A
C4826      H4831   1.083       .  S
C4827      C4828   1.406       .  A
C4827      O4832   1.371       .  S
C4828      C4829   1.397       .  A
C4829      C4830   1.399       .  A
C4829      H4833   1.084       .  S
C4830      O4834   1.374       .  S
O4832      H4836   0.992       .  S
O4834      H4835   0.992       .  S
C4837      C4838   1.399       .  A
C4837      C4842   1.404       .  A
C4838      C4839   1.397       .  A
C4838      H4843   1.084       .  S
C4839      C4840   1.411       .  A
C4839      O4844   1.372       .  S
C4840      C4841   1.403       .  A
C4841      C4842   1.396       .  A
C4841      H4845   1.084       .  S
C4842      O4846   1.372       .  S
O4844      H4848   0.992       .  S
O4846      H4847   0.992       .  S
C4849      C4850   1.406       .  A
C4849      C4854   1.412       .  A
C4850      C4851   1.403       .  A
C4850      H4855   1.083       .  S
C4851      C4852   1.405       .  A
C4851      O4856   1.371       .  S
C4852      C4853   1.398       .  A
C4853      C4854   1.397       .  A
C4853      H4857   1.084       .  S
C4854      O4858   1.372       .  S
O4856      H4860   0.992       .  S
O4858      H4859   0.992       .  S
C4861      C4862   1.407       .  A
C4861      C4866   1.408       .  A
C4862      C4863   1.402       .  A
C4862      H4867   1.083       .  S
C4863      C4864   1.409       .  A
C4863      O4868   1.372       .  S
C4864      C4865   1.409       .  A
C4865      C4866   1.399       .  A
C4865      H4869   1.083       .  S
C4866      O4870   1.372       .  S
O4868      H4872   0.992       .  S
O4870      H4871   0.992       .  S
C4873      C4874   1.399       .  A
C4873      C4878   1.403       .  A
C4874      C4875   1.397       .  A
C4874      H4879   1.084       .  S
C4875      C4876   1.413       .  A
C4875      O4880   1.372       .  S
C4876      C4877   1.407       .  A
C4877      C4878   1.395       .  A
C4877      H4881   1.083       .  S
C4878      O4882   1.372       .  S
O4880      H4884   0.992       .  S
O4882      H4883   0.992       .  S
C4885      C4886   1.402       .  A
C4885      C4890   1.415       .  A
C4886      C4887   1.398       .  A
C4886      H4891   1.083       .  S
C4887      C4888   1.410       .  A
C4887      O4892   1.372       .  S
C4888      C4889   1.400       .  A
C4889      C4890   1.401       .  A
C4889      H4893   1.084       .  S
C4890      O4894   1.372       .  S
O4892      H4896   0.992       .  S
O4894      H4895   0.992       .  S
C4897      C4898   1.401       .  A
C4897      C4902   1.415       .  A
C4898      C4899   1.402       .  A
C4898      H4903   1.083       .  S
C4899      C4900   1.415       .  A
C4899      O4904   1.373       .  S
C4900      C4901   1.403       .  A
C4901      C4902   1.403       .  A
C4901      H4905   1.083       .  S
C4902      O4906   1.371       .  S
O4904      H4908   0.992       .  S
O4906      H4907   0.992       .  S
C4909      C4910   1.402       .  A
C4909      C4914   1.414       .  A
C4910      C4911   1.401       .  A
C4910      H4915   1.083       .  S
C4911      C4912   1.413       .  A
C4911      O4916   1.373       .  S
C4912      C4913   1.403       .  A
C4913      C4914   1.400       .  A
C4913      H4917   1.083       .  S
C4914      O4918   1.371       .  S
O4916      H4920   0.992       .  S
O4918      H4919   0.992       .  S
C4921      C4922   1.408       .  A
C4921      C4926   1.408       .  A
C4922      C4923   1.401       .  A
C4922      H4927   1.083       .  S
C4923      C4924   1.408       .  A
C4923      O4928   1.371       .  S
C4924      C4925   1.408       .  A
C4925      C4926   1.400       .  A
C4925      H4929   1.084       .  S
C4926      O4930   1.371       .  S
O4928      H4932   0.992       .  S
O4930      H4931   0.992       .  S
C4933      C4934   1.396       .  A
C4933      C4938   1.406       .  A
C4934      C4935   1.399       .  A
C4934      H4939   1.084       .  S
C4935      C4936   1.418       .  A
C4935      O4940   1.374       .  S
C4936      C4937   1.409       .  A
C4937      C4938   1.404       .  A
C4937      H4941   1.083       .  S
C4938      O4942   1.371       .  S
O4940      H4944   0.992       .  S
O4942      H4943   0.992       .  S
C4945      C4946   1.409       .  A
C4945      C4950   1.409       .  A
C4946      C4947   1.399       .  A
C4946      H4951   1.083       .  S
C4947      C4948   1.407       .  A
C4947      O4952   1.372       .  S
C4948      C4949   1.408       .  A
C4949      C4950   1.403       .  A
C4949      H4953   1.083       .  S
C4950      O4954   1.372       .  S
O4952      H4956   0.992       .  S
O4954      H4955   0.992       .  S
C4957      C4958   1.408       .  A
C4957      C4962   1.407       .  A
C4958      C4959   1.404       .  A
C4958      H4963   1.083       .  S
C4959      C4960   1.410       .  A
C4959      O4964   1.372       .  S
C4960      C4961   1.409       .  A
C4961      C4962   1.398       .  A
C4961      H4965   1.083       .  S
C4962      O4966   1.372       .  S
O4964      H4968   0.992       .  S
O4966      H4967   0.992       .  S
C4969      C4970   1.402       .  A
C4969      C4974   1.415       .  A
C4970      C4971   1.401       .  A
C4970      H4975   1.083       .  S
C4971      C4972   1.413       .  A
C4971      O4976   1.373       .  S
C4972      C4973   1.402       .  A
C4973      C4974   1.400       .  A
C4973      H4977   1.083       .  S
C4974      O4978   1.371       .  S
O4976      H4980   0.992       .  S
O4978      H4979   0.992       .  S
C4981      C4982   1.403       .  A
C4981      C4986   1.405       .  A
C4982      C4983   1.403       .  A
C4982      H4987   1.084       .  S
C4983      C4984   1.407       .  A
C4983      O4988   1.371       .  S
C4984      C4985   1.404       .  A
C4985      C4986   1.399       .  A
C4985      H4989   1.084       .  S
C4986      O4990   1.372       .  S
O4988      H4992   0.992       .  S
O4990      H4991   0.992       .  S
C4993      C4994   1.408       .  A
C4993      C4998   1.418       .  A
C4994      C4995   1.404       .  A
C4994      H4999   1.083       .  S
C4995      C4996   1.406       .  A
C4995      O5000   1.371       .  S
C4996      C4997   1.396       .  A
C4997      C4998   1.400       .  A
C4997      H5001   1.084       .  S
C4998      O5002   1.374       .  S
O5000      H5004   0.992       .  S
O5002      H5003   0.992       .  S
C5005      C5006   1.402       .  A
C5005      C5010   1.413       .  A
C5006      C5007   1.401       .  A
C5006      H5011   1.084       .  S
C5007      C5008   1.415       .  A
C5007      O5012   1.371       .  S
C5008      C5009   1.403       .  A
C5009      C5010   1.403       .  A
C5009      H5013   1.083       .  S
C5010      O5014   1.373       .  S
O5012      H5016   0.992       .  S
O5014      H5015   0.992       .  S
C5017      C5018   1.408       .  A
C5017      C5022   1.418       .  A
C5018      C5019   1.406       .  A
C5018      H5023   1.083       .  S
C5019      C5020   1.406       .  A
C5019      O5024   1.371       .  S
C5020      C5021   1.396       .  A
C5021      C5022   1.399       .  A
C5021      H5025   1.084       .  S
C5022      O5026   1.374       .  S
O5024      H5028   0.991       .  S
O5026      H5027   0.992       .  S
C5029      C5030   1.408       .  A
C5029      C5034   1.419       .  A
C5030      C5031   1.406       .  A
C5030      H5035   1.083       .  S
C5031      C5032   1.407       .  A
C5031      O5036   1.371       .  S
C5032      C5033   1.395       .  A
C5033      C5034   1.399       .  A
C5033      H5037   1.084       .  S
C5034      O5038   1.374       .  S
O5036      H5040   0.992       .  S
O5038      H5039   0.992       .  S
C5041      C5042   1.407       .  A
C5041      C5046   1.416       .  A
C5042      C5043   1.406       .  A
C5042      H5047   1.083       .  S
C5043      C5044   1.407       .  A
C5043      O5048   1.371       .  S
C5044      C5045   1.396       .  A
C5045      C5046   1.398       .  A
C5045      H5049   1.084       .  S
C5046      O5050   1.374       .  S
O5048      H5052   0.992       .  S
O5050      H5051   0.992       .  S
C5053      C5054   1.405   1_556  A
C5053      C5058   1.411       .  A
C5054      C5055   1.397       .  A
C5054      H5059   1.083       .  S
C5055      C5056   1.403   1_554  A
C5055      O5060   1.371       .  S
C5056      C5057   1.398       .  A
C5057      C5058   1.395       .  A
C5057      H5061   1.084       .  S
C5058      O5062   1.372       .  S
O5060      H5064   0.992   1_554  S
O5062      H5063   0.992   1_556  S
C5065      C5066   1.405       .  A
C5065      C5070   1.410   1_545  A
C5066      C5067   1.397       .  A
C5066      H5071   1.084       .  S
C5067      C5068   1.403       .  A
C5067      O5072   1.372       .  S
C5068      C5069   1.398   1_545  A
C5069      C5070   1.395       .  A
C5069      H5073   1.084       .  S
C5070      O5074   1.372       .  S
O5072      H5076   0.992       .  S
O5074      H5075   0.992       .  S
C5077      C5078   1.399       .  A
C5077      C5082   1.401       .  A
C5078      C5079   1.394       .  A
C5078      H5083   1.084       .  S
C5079      C5080   1.413       .  A
C5079      O5084   1.372       .  S
C5080      C5081   1.409       .  A
C5081      C5082   1.397       .  A
C5081      H5085   1.083       .  S
C5082      O5086   1.371       .  S
O5084      H5088   0.992       .  S
O5086      H5087   0.992       .  S
C5089      C5090   1.395       .  A
C5089      C5094   1.407       .  A
C5090      C5091   1.399       .  A
C5090      H5095   1.084       .  S
C5091      C5092   1.418       .  A
C5091      O5096   1.374       .  S
C5092      C5093   1.408       .  A
C5093      C5094   1.405       .  A
C5093      H5097   1.083       .  S
C5094      O5098   1.371       .  S
O5096      H5100   0.992       .  S
O5098      H5099   0.992       .  S
C5101      C5102   1.404       .  A
C5101      C5106   1.415       .  A
C5102      C5103   1.400       .  A
C5102      H5107   1.083       .  S
C5103      C5104   1.412       .  A
C5103      O5108   1.372       .  S
C5104      C5105   1.402       .  A
C5105      C5106   1.403       .  A
C5105      H5109   1.084       .  S
C5106      O5110   1.371       .  S
O5108      H5112   0.992       .  S
O5110      H5111   0.992       .  S
C5113      C5114   1.403       .  A
C5113      C5118   1.415       .  A
C5114      C5115   1.401       .  A
C5114      H5119   1.083       .  S
C5115      C5116   1.412       .  A
C5115      O5120   1.373       .  S
C5116      C5117   1.401       .  A
C5117      C5118   1.400       .  A
C5117      H5121   1.084       .  S
C5118      O5122   1.372       .  S
O5120      H5124   0.992       .  S
O5122      H5123   0.992       .  S
C5125      C5126   1.409       .  A
C5125      C5130   1.409       .  A
C5126      C5127   1.401       .  A
C5126      H5131   1.083       .  S
C5127      C5128   1.408       .  A
C5127      O5132   1.371       .  S
C5128      C5129   1.408       .  A
C5129      C5130   1.402       .  A
C5129      H5133   1.083       .  S
C5130      O5134   1.372       .  S
O5132      H5136   0.992       .  S
O5134      H5135   0.992       .  S
C5137      C5138   1.403       .  A
C5137      C5142   1.414       .  A
C5138      C5139   1.403       .  A
C5138      H5143   1.083       .  S
C5139      C5140   1.413       .  A
C5139      O5144   1.373       .  S
C5140      C5141   1.403       .  A
C5141      C5142   1.401       .  A
C5141      H5145   1.083       .  S
C5142      O5146   1.371       .  S
O5144      H5148   0.992       .  S
O5146      H5147   0.992       .  S
C5149      C5150   1.413       .  A
C5149      C5154   1.415       .  A
C5150      C5151   1.396       .  A
C5150      H5155   1.083       .  S
C5151      C5152   1.400       .  A
C5151      O5156   1.372       .  S
C5152      C5153   1.403       .  A
C5153      C5154   1.405       .  A
C5153      H5157   1.084       .  S
C5154      O5158   1.370       .  S
O5156      H5160   0.992       .  S
O5158      H5159   0.992       .  S
C5161      C5162   1.400       .  A
C5161      C5166   1.407       .  A
C5162      C5163   1.396       .  A
C5162      H5167   1.084       .  S
C5163      C5164   1.408       .  A
C5163      O5168   1.372       .  S
C5164      C5165   1.406       .  A
C5165      C5166   1.407       .  A
C5165      H5169   1.083       .  S
C5166      O5170   1.371       .  S
O5168      H5172   0.992       .  S
O5170      H5171   0.992       .  S
C5173      C5174   1.410       .  A
C5173      C5178   1.420       .  A
C5174      C5175   1.404       .  A
C5174      H5179   1.082       .  S
C5175      C5176   1.406       .  A
C5175      O5180   1.372       .  S
C5176      C5177   1.395       .  A
C5177      C5178   1.400       .  A
C5177      H5181   1.084       .  S
C5178      O5182   1.374       .  S
O5180      H5184   0.992       .  S
O5182      H5183   0.993       .  S
C5185      C5186   1.402       .  A
C5185      C5190   1.407       .  A
C5186      C5187   1.397       .  A
C5186      H5191   1.084       .  S
C5187      C5188   1.407       .  A
C5187      O5192   1.372       .  S
C5188      C5189   1.405       .  A
C5189      C5190   1.405       .  A
C5189      H5193   1.083       .  S
C5190      O5194   1.371       .  S
O5192      H5196   0.992       .  S
O5194      H5195   0.992       .  S
C5197      C5198   1.403       .  A
C5197      C5202   1.412       .  A
C5198      C5199   1.396       .  A
C5198      H5203   1.084       .  S
C5199      C5200   1.405       .  A
C5199      O5204   1.372       .  S
C5200      C5201   1.398       .  A
C5201      C5202   1.397       .  A
C5201      H5205   1.084       .  S
C5202      O5206   1.372       .  S
O5204      H5208   0.992       .  S
O5206      H5207   0.992       .  S
C5209      C5210   1.407       .  A
C5209      C5214   1.413       .  A
C5210      C5211   1.393       .  A
C5210      H5215   1.082       .  S
C5211      C5212   1.413       .  A
C5211      O5216   1.372       .  S
C5212      C5213   1.408       .  A
C5213      C5214   1.400       .  A
C5213      H5217   1.082       .  S
C5214      O5218   1.373       .  S
O5216      H5220   0.992       .  S
O5218      H5219   0.992       .  S
C5221      C5222   1.404       .  A
C5221      C5226   1.410       .  A
C5222      C5223   1.398       .  A
C5222      H5227   1.084       .  S
C5223      C5224   1.405       .  A
C5223      O5228   1.371       .  S
C5224      C5225   1.399       .  A
C5225      C5226   1.396       .  A
C5225      H5229   1.084       .  S
C5226      O5230   1.372       .  S
O5228      H5232   0.992       .  S
O5230      H5231   0.992       .  S
