geometry optimzed in LAMMPS
_audit_creation_date              2020-11-30 
_audit_creation_method            'lammps2cif' 
_symmetry_space_group_name_H-M    'P1' 
_symmetry_Int_Tables_number       1 
_symmetry_cell_setting            triclinic 
loop_ 
_symmetry_equiv_pos_as_xyz 
  x,y,z 
_cell_length_a                    27.80170648 
_cell_length_b                    27.253137670162065 
_cell_length_c                    28.94723635518597 
_cell_angle_alpha                 88.29962698527791 
_cell_angle_beta                  90.06017867413404 
_cell_angle_gamma                 92.01575137570808 
loop_ 
_atom_site_label 
_atom_site_type_symbol 
_atom_site_fract_x 
_atom_site_fract_y 
_atom_site_fract_z 
_atom_site_charge 
O1          O  0.33888938  0.67774409  0.74521874    -0.80100
O2          O  0.33381876  0.83897827  0.76008754    -0.80100
O3          O  0.28648794  0.71689874  0.65548973    -0.80100
O4          O  0.29478736  0.78347514  0.85047617    -0.80100
O5          O  0.34559870  0.76310448  0.68523477    -0.80200
O6          O  0.34827382  0.74389406  0.81195057    -0.80100
O7          O  0.26637245  0.85510768  0.79239386    -0.80100
O8          O  0.27821452  0.64240020  0.71052061    -0.80100
C9          C  0.32319287  0.64557561  0.71823221     1.09600
C10         C  0.30979703  0.86604667  0.78660398     1.09500
C11         C  0.33067078  0.73181673  0.65538490     1.09600
C12         C  0.33916162  0.77254315  0.84346075     1.09500
O13         O  0.25757127  0.70165104  0.85623422    -0.80100
O14         O  0.25458501  0.79394498  0.65156770    -0.80200
O15         O  0.18694411  0.67187063  0.74982774    -0.80100
O16         O  0.18387129  0.80649981  0.76103510    -0.80100
O17         O  0.23652976  0.85021577  0.71820880    -0.80200
O18         O  0.24907462  0.64143749  0.78614083    -0.80100
O19         O  0.19894170  0.73368410  0.82010092    -0.80100
O20         O  0.19075998  0.75330456  0.67774681    -0.80100
Co21       Co  0.29762907  0.69601155  0.79620617     1.51500
Co22       Co  0.29330519  0.80640131  0.70871672     1.51700
Co23       Co  0.23547473  0.70104785  0.70331298     1.51600
Co24       Co  0.23710398  0.79015689  0.80283754     1.51500
O25         O  0.26646934  0.74861100  0.75213930    -1.42000
C26         C  0.21270315  0.70933088  0.85389556     1.09500
C27         C  0.20977340  0.78431295  0.64839868     1.09600
C28         C  0.20410289  0.64043560  0.77872334     1.09500
C29         C  0.19301040  0.84103712  0.73195989     1.09500
O30         O  0.74456353  0.31514954  0.64101075    -0.80100
O31         O  0.75105091  0.32386619  0.79636436    -0.80100
O32         O  0.65143200  0.27021630  0.68400048    -0.80100
O33         O  0.84629476  0.28031598  0.76772475    -0.80100
O34         O  0.68965924  0.32710206  0.72411253    -0.80200
O35         O  0.81508109  0.33445154  0.71766530    -0.80100
O36         O  0.78216406  0.26200426  0.83133283    -0.80100
O37         O  0.71766598  0.24474871  0.62160434    -0.80100
C38         C  0.71817535  0.28987499  0.61401844     1.09600
C39         C  0.77754519  0.30757559  0.82817790     1.09500
C40         C  0.65841804  0.31563499  0.69482633     1.09600
C41         C  0.84462766  0.32458760  0.75093702     1.09500
O42         O  0.85630203  0.24687952  0.69567284    -0.80100
O43         O  0.64075528  0.23528722  0.75936981    -0.80200
O44         O  0.74617800  0.16178873  0.67301498    -0.80100
O45         O  0.75143731  0.16820421  0.80118854    -0.80100
O46         O  0.70470035  0.22733948  0.82371670    -0.80200
O47         O  0.79398739  0.21488537  0.63382860    -0.80100
O48         O  0.83120790  0.17965824  0.73126988    -0.80100
O49         O  0.67591480  0.17285465  0.73383012    -0.80100
Co50       Co  0.79701613  0.27753641  0.67576606     1.51500
Co51       Co  0.70092875  0.27793845  0.77190325     1.51700
Co52       Co  0.70085353  0.21379270  0.68260400     1.51600
Co53       Co  0.79858243  0.22193097  0.77735489     1.51500
O54         O  0.74991632  0.24750674  0.72708923    -1.42000
C55         C  0.86234642  0.20266129  0.70566623     1.09500
C56         C  0.64268442  0.18889553  0.75695368     1.09600
C57         C  0.77778851  0.17015656  0.64222105     1.09500
C58         C  0.71938332  0.18361512  0.82888228     1.09500
O59         O  0.68661615  0.75963798  0.18571803    -0.80100
O60         O  0.84491119  0.74255056  0.18787520    -0.80100
O61         O  0.72661978  0.84929969  0.22328710    -0.80100
O62         O  0.79514735  0.65098970  0.22429159    -0.80100
O63         O  0.77282770  0.81431322  0.17209244    -0.80200
O64         O  0.75217163  0.69477549  0.17442285    -0.80100
O65         O  0.86755955  0.70895736  0.25186430    -0.80100
O66         O  0.65159134  0.79075758  0.24317968    -0.80100
C67         C  0.65166619  0.78164022  0.20068230     1.09600
C68         C  0.87259484  0.71337314  0.20897453     1.09500
C69         C  0.74020218  0.84437026  0.18117474     1.09600
C70         C  0.78108102  0.66163102  0.18264880     1.09500
O71         O  0.71764326  0.63929914  0.25334968    -0.80100
O72         O  0.80293359  0.85798662  0.25694825    -0.80200
O73         O  0.69603548  0.75474352  0.32841720    -0.80100
O74         O  0.82138679  0.73821346  0.33223728    -0.80100
O75         O  0.86026828  0.78758312  0.28083249    -0.80200
O76         O  0.66063807  0.71036346  0.27490253    -0.80100
O77         O  0.74881697  0.66166150  0.31785661    -0.80100
O78         O  0.76647999  0.82789452  0.31783271    -0.80100
Co79       Co  0.70832555  0.70525019  0.22311466     1.51500
Co80       Co  0.81586157  0.79585472  0.22471849     1.51700
Co81       Co  0.71474664  0.80137173  0.27801022     1.51600
Co82       Co  0.80348574  0.69417191  0.28115903     1.51500
O83         O  0.76094936  0.74927121  0.25266575    -1.42000
C84         C  0.72223648  0.63146940  0.29615232     1.09500
C85         C  0.79385653  0.86055431  0.29944997     1.09600
C86         C  0.66659827  0.72069452  0.31729623     1.09500
C87         C  0.85315517  0.77220691  0.32286503     1.09500
C88         C  0.53510136  0.98549649  0.03430393     0.02300
C89         C  0.53677921  0.02421862  0.99612884     0.02300
C90         C  0.49512439  0.02724539  0.96286205     0.02300
C91         C  0.45090902  0.99461676  0.97168491     0.02300
C92         C  0.45381282  0.94957594  0.00270642     0.02300
C93         C  0.49468136  0.94786562  0.03630063     0.02300
N94         N  0.57639208  0.98057977  0.06869537    -0.03400
C95         C  0.61687712  0.95609975  0.05388947    -0.00900
C96         C  0.65257073  0.99105446  0.04445953    -0.23700
C97         C  0.64340038  0.02763111  0.07402906    -0.23900
C98         C  0.59696473  0.02165034  0.08971058    -0.01000
H99         H  0.68907168  0.98348488  0.03422751     0.12800
H100        H  0.67127707  0.05014790  0.08981691     0.12900
N101        N  0.57671193  0.06444010  0.99571127    -0.03400
C102        C  0.56998648  0.09934151  0.02841344    -0.00900
C103        C  0.53204580  0.12623693  0.01282163    -0.23700
C104        C  0.54740351  0.13435774  0.96898315    -0.23900
C105        C  0.57973475  0.09806296  0.95941155    -0.01000
H106        H  0.51236730  0.15317722  0.03071404     0.12800
H107        H  0.54914735  0.17142884  0.95653266     0.12900
N108        N  0.40326332  0.00985738  0.95127410    -0.03400
C109        C  0.37824840  0.04795194  0.96961437    -0.00900
C110        C  0.34594538  0.02727432  0.00128149    -0.23700
C111        C  0.33154666  0.98565117  0.98009116    -0.23900
C112        C  0.36512232  0.97779855  0.94554053    -0.01000
H113        H  0.32173873  0.04576026  0.02343415     0.12800
H114        H  0.29731208  0.96681984  0.98654274     0.12900
N115        N  0.49760703  0.06307962  0.92056378    -0.03400
C116        C  0.45773000  0.06681690  0.89374380    -0.00900
C117        C  0.45896634  0.03028696  0.86145897    -0.23700
C118        C  0.50569795  0.01859694  0.85793775    -0.23900
C119        C  0.52868443  0.05388584  0.88439876    -0.01000
H120        H  0.43398236  0.02513800  0.83314594     0.12800
H121        H  0.51878802  0.00258044  0.82683764     0.12900
N122        N  0.49846919  0.90610104  0.07106105    -0.03400
C123        C  0.53333086  0.87460557  0.06028196    -0.00900
C124        C  0.51251858  0.84061368  0.03093936    -0.23700
C125        C  0.46675981  0.83573430  0.04737174    -0.23900
C126        C  0.46154516  0.87197463  0.07924814    -0.01000
H127        H  0.52946446  0.81079494  0.01425411     0.12800
H128        H  0.44650622  0.80180192  0.04638376     0.12900
N129        N  0.41784935  0.90556880  0.99847268    -0.03400
C130        C  0.37178855  0.90127653  0.01898495    -0.00900
C131        C  0.33784387  0.88370794  0.98821425    -0.23700
C132        C  0.36130886  0.87026297  0.95090998    -0.23900
C133        C  0.41005357  0.88024025  0.95751306    -0.01000
H134        H  0.30023348  0.87425321  0.99515557     0.12800
H135        H  0.34366879  0.85122139  0.92329642     0.12900
C136        C  0.94859503  0.49874822  0.02649623     0.02300
C137        C  0.95014113  0.46031582  0.98944431     0.02300
C138        C  0.98931513  0.46388684  0.95527670     0.02300
C139        C  0.03009606  0.50060214  0.96190883     0.02300
C140        C  0.02824087  0.53798576  0.99832009     0.02300
C141        C  0.99148428  0.53167276  0.03441001     0.02300
N142        N  0.06250609  0.58305054  0.99714634    -0.03400
C143        C  0.05369566  0.61874375  0.96357394    -0.00900
C144        C  0.02439008  0.65228156  0.98289633    -0.23700
C145        C  0.03507590  0.64941424  0.02871425    -0.23900
C146        C  0.06743550  0.61298003  0.03438376    -0.01000
H147        H  0.01231431  0.68610713  0.96725220     0.12800
H148        H  0.03077291  0.67977539  0.05144012     0.12900
N149        N  0.07704607  0.49433351  0.93796498    -0.03400
C150        C  0.10876942  0.53389095  0.93215475    -0.00900
C151        C  0.14120816  0.53224437  0.96918147    -0.23700
C152        C  0.13425745  0.48842592  0.99172098    -0.23900
C153        C  0.10734577  0.46209930  0.96027814    -0.01000
H154        H  0.17513599  0.55235524  0.97224955     0.12800
H155        H  0.16165662  0.47510750  0.01468467     0.12900
N156        N  0.00014624  0.55603422  0.08028028    -0.03400
C157        C  0.96461602  0.55491538  0.11274243    -0.00900
C158        C  0.97137257  0.51209344  0.13967763    -0.23700
C159        C  0.01666391  0.49766459  0.13172839    -0.23900
C160        C  0.03672097  0.53778465  0.10792688    -0.01000
H161        H  0.95490896  0.50048106  0.17185625     0.12800
H162        H  0.03363372  0.47350259  0.15630387     0.12900
N163        N  0.90368847  0.50932711  0.05337552    -0.03400
C164        C  0.88050356  0.55260700  0.04477383    -0.00900
C165        C  0.85000725  0.54522053  0.00771587    -0.23700
C166        C  0.83315997  0.49912786  0.01790798    -0.23900
C167        C  0.86436137  0.47961929  0.05078474    -0.01000
H168        H  0.82746734  0.57165594  0.99049088     0.12800
H169        H  0.79822142  0.48542375  0.00707717     0.12900
N170        N  0.98698232  0.43011890  0.91426379    -0.03400
C171        C  0.97412067  0.44787079  0.86976020    -0.00900
C172        C  0.01603174  0.45285840  0.84422095    -0.23700
C173        C  0.04545470  0.41876484  0.86327659    -0.23900
C174        C  0.02689789  0.40339537  0.90565992    -0.01000
H175        H  0.01790860  0.46311217  0.80775245     0.12800
H176        H  0.07198233  0.40009789  0.84363915     0.12900
N177        N  0.91335888  0.41815613  0.98448445    -0.03400
C178        C  0.89689434  0.38581112  0.01972960    -0.00900
C179        C  0.84680386  0.38290765  0.01934481    -0.23700
C180        C  0.83185104  0.40668363  0.98150564    -0.23900
C181        C  0.87252282  0.42419425  0.95774387    -0.01000
H182        H  0.82307915  0.36053630  0.04154985     0.12800
H183        H  0.79516029  0.40333289  0.96878785     0.12900
C184        C  0.49555185  0.44774115  0.52878609     0.02300
C185        C  0.46192301  0.49029649  0.53336160     0.02300
C186        C  0.45842160  0.52946089  0.49678746     0.02300
C187        C  0.49627856  0.52886704  0.45887623     0.02300
C188        C  0.52343082  0.48368094  0.44878079     0.02300
C189        C  0.52311999  0.44282906  0.48352814     0.02300
N190        N  0.49857577  0.40954561  0.56856250    -0.03400
C191        C  0.54033452  0.39595080  0.59228251    -0.00900
C192        C  0.54105056  0.34504134  0.59575612    -0.23700
C193        C  0.49892258  0.32658127  0.58033167    -0.23900
C194        C  0.47075302  0.36600011  0.56869144    -0.01000
H195        H  0.56773581  0.32260502  0.61207699     0.12800
H196        H  0.48701562  0.28846392  0.58594300     0.12900
N197        N  0.41862364  0.56879088  0.50081606    -0.03400
C198        C  0.38528489  0.57840112  0.46482418    -0.00900
C199        C  0.39009203  0.62723158  0.45106227    -0.23700
C200        C  0.41510190  0.65077576  0.48380609    -0.23900
C201        C  0.42908095  0.61661697  0.51708428    -0.01000
H202        H  0.37109547  0.64605902  0.42368421     0.12800
H203        H  0.41643823  0.69056065  0.48623198     0.12900
N204        N  0.55326188  0.47948660  0.40408593    -0.03400
C205        C  0.56118993  0.51990932  0.37529918    -0.00900
C206        C  0.52248254  0.52245637  0.34547247    -0.23700
C207        C  0.50613450  0.47531949  0.34186438    -0.23900
C208        C  0.53720774  0.44882757  0.36905327    -0.01000
H209        H  0.51650907  0.55004850  0.31866562     0.12800
H210        H  0.48613382  0.46425853  0.31197357     0.12900
N211        N  0.51299616  0.57478098  0.43395546    -0.03400
C212        C  0.48272624  0.60979201  0.41900923    -0.00900
C213        C  0.49748466  0.65375517  0.43924868    -0.23700
C214        C  0.53511942  0.64447279  0.46778170    -0.23900
C215        C  0.55239353  0.60227596  0.44983477    -0.01000
H216        H  0.48411186  0.69004481  0.43198682     0.12800
H217        H  0.55629852  0.67404240  0.48292233     0.12900
N218        N  0.43485058  0.49868081  0.57732177    -0.03400
C219        C  0.45276604  0.53709310  0.60226759    -0.00900
C220        C  0.48970251  0.51861251  0.62905500    -0.23700
C221        C  0.47215551  0.47235862  0.63952593    -0.23900
C222        C  0.43194876  0.46446358  0.61288619    -0.01000
H223        H  0.51319317  0.53823348  0.65245143     0.12800
H224        H  0.47861473  0.45370016  0.67140791     0.12900
N225        N  0.55226285  0.39865927  0.47110083    -0.03400
C226        C  0.55774008  0.35942334  0.50049328    -0.00900
C227        C  0.52199693  0.32394301  0.48961607    -0.23700
C228        C  0.50222691  0.33877300  0.44940691    -0.23900
C229        C  0.53834427  0.37064774  0.43379346    -0.01000
H230        H  0.51529408  0.28740754  0.50426079     0.12800
H231        H  0.47760811  0.31569283  0.43068588     0.12900
C232        C  0.04339269  0.96812009  0.50870054     0.02300
C233        C  0.04143095  0.00350172  0.54599475     0.02300
C234        C  0.00616457  0.04430688  0.54244063     0.02300
C235        C  0.96364551  0.04158373  0.50866204     0.02300
C236        C  0.96456863  0.00264795  0.47417312     0.02300
C237        C  0.00138761  0.96311908  0.47725851     0.02300
N238        N  0.01838304  0.08925490  0.56991276    -0.03400
C239        C  0.05939251  0.11783532  0.55920261    -0.00900
C240        C  0.04714499  0.14944179  0.52352828    -0.23700
C241        C  0.00369413  0.16241086  0.53860836    -0.23900
C242        C  0.98813133  0.12665793  0.57165880    -0.01000
H243        H  0.06957852  0.17480596  0.50349725     0.12800
H244        H  0.99034008  0.19887939  0.53253868     0.12900
N245        N  0.07315656  0.99533911  0.58859428    -0.03400
C246        C  0.07412634  0.02946135  0.62202377    -0.00900
C247        C  0.03681606  0.01739502  0.65223953    -0.23700
C248        C  0.02467901  0.96933291  0.64568041    -0.23900
C249        C  0.06084004  0.95481738  0.61684038    -0.01000
H250        H  0.02892733  0.03560023  0.68399700     0.12800
H251        H  0.00616096  0.94730427  0.67230191     0.12900
N252        N  0.08864676  0.93908911  0.50080807    -0.03400
C253        C  0.12508320  0.93857663  0.53260917    -0.00900
C254        C  0.15625926  0.97760268  0.52032680    -0.23700
C255        C  0.14623835  0.99122879  0.47620195    -0.23900
C256        C  0.11708906  0.95254747  0.46274044    -0.01000
H257        H  0.19105790  0.98699892  0.53394083     0.12800
H258        H  0.17200750  0.01302095  0.45626626     0.12900
N259        N  0.92031324  0.07626698  0.50715527    -0.03400
C260        C  0.92372612  0.12295989  0.48518300    -0.00900
C261        C  0.90925656  0.15828343  0.51509760    -0.23700
C262        C  0.89000874  0.13491148  0.55214533    -0.23900
C263        C  0.89065997  0.08481305  0.54539673    -0.01000
H264        H  0.90562774  0.19728400  0.50760475     0.12800
H265        H  0.87233063  0.15395250  0.57898202     0.12900
N266        N  0.93247409  0.00784826  0.43208737    -0.03400
C267        C  0.94476096  0.04583767  0.40118458    -0.00900
C268        C  0.98431711  0.03010870  0.37723947    -0.23700
C269        C  0.97275437  0.98146269  0.37254160    -0.23900
C270        C  0.93345988  0.97147016  0.40097269    -0.01000
H271        H  0.00625366  0.05040343  0.35200626     0.12800
H272        H  0.98160171  0.96157513  0.34205688     0.12900
N273        N  0.99442575  0.91628832  0.45063686    -0.03400
C274        C  0.03160716  0.88488408  0.44783859    -0.00900
C275        C  0.02677080  0.85166208  0.48537819    -0.23700
C276        C  0.97983341  0.85235821  0.49874532    -0.23900
C277        C  0.95890538  0.88274853  0.46586675    -0.01000
H278        H  0.04837180  0.82006996  0.49251301     0.12800
H279        H  0.96315789  0.82111511  0.51689370     0.12900
O280        O  0.22860875  0.18272655  0.70288944    -0.80100
O281        O  0.24308934  0.34008009  0.70311718    -0.80100
O282        O  0.13558690  0.22148223  0.75336360    -0.80100
O283        O  0.34008474  0.29776048  0.74276532    -0.80100
O284        O  0.17148847  0.26849988  0.70013284    -0.80200
O285        O  0.29959311  0.25578606  0.69052778    -0.80100
O286        O  0.28390397  0.36789901  0.76103802    -0.80100
O287        O  0.19540899  0.14957107  0.76442362    -0.80100
C288        C  0.20515026  0.14750422  0.72196014     1.09600
C289        C  0.27429250  0.37039657  0.71827572     1.09500
C290        C  0.14182230  0.23412355  0.71080163     1.09600
C291        C  0.33354207  0.28572122  0.70091003     1.09500
O292        O  0.34489656  0.21791475  0.77114511    -0.80100
O293        O  0.13383446  0.29896646  0.78982321    -0.80200
O294        O  0.23579488  0.19052240  0.84686981    -0.80100
O295        O  0.25435590  0.32255358  0.84839097    -0.80100
O296        O  0.20875215  0.35974546  0.79665321    -0.80200
O297        O  0.27527308  0.15508990  0.79176649    -0.80100
O298        O  0.32311581  0.25010148  0.83490131    -0.80100
O299        O  0.17050274  0.26024952  0.84470775    -0.80100
Co300      Co  0.28237070  0.20736797  0.73992574     1.51500
Co301      Co  0.19319743  0.31245889  0.74749886     1.51700
Co302      Co  0.18839353  0.21006617  0.80151242     1.51600
Co303      Co  0.29554022  0.30470929  0.79683119     1.51500
O304        O  0.23998260  0.25873639  0.77141332    -1.42000
C305        C  0.35162981  0.22360529  0.81346104     1.09500
C306        C  0.13618783  0.28593712  0.83244416     1.09600
C307        C  0.26510689  0.15930611  0.83459750     1.09500
C308        C  0.22491567  0.35546531  0.83762452     1.09500
O309        O  0.76468057  0.13313215  0.27354669    -0.80100
O310        O  0.76049076  0.35283258  0.20876806    -0.80100
O311        O  0.83608992  0.24525050  0.17594224    -0.80100
O312        O  0.82986106  0.24914732  0.30819239    -0.80100
O313        O  0.78230197  0.29035440  0.14011258    -0.80200
O314        O  0.77011221  0.20122821  0.33518312    -0.80100
O315        O  0.82617637  0.32797925  0.23725207    -0.80100
O316        O  0.82593095  0.17223673  0.24263977    -0.80100
C317        C  0.81002902  0.13783849  0.26867096     1.09600
C318        C  0.80480937  0.35662030  0.20913176     1.09500
C319        C  0.82560629  0.27424062  0.14283544     1.09600
C320        C  0.81396094  0.21642131  0.33724260     1.09500
O321        O  0.67840587  0.24047917  0.30499849    -0.80100
O322        O  0.68633366  0.24264926  0.16251356    -0.80200
O323        O  0.73210895  0.14041867  0.19738195    -0.80100
O324        O  0.72719252  0.34627732  0.28014269    -0.80100
O325        O  0.67359016  0.31129493  0.23356648    -0.80200
O326        O  0.67473772  0.17446696  0.23567848    -0.80100
O327        O  0.73601139  0.27908472  0.34156637    -0.80100
O328        O  0.74902042  0.20941669  0.13363876    -0.80100
Co329      Co  0.72264603  0.19190546  0.28330608     1.51500
Co330      Co  0.72622785  0.29445587  0.18937908     1.51700
Co331      Co  0.78495634  0.19587025  0.19221520     1.51600
Co332      Co  0.78054628  0.29626506  0.28668998     1.51500
O333        O  0.75400025  0.24486576  0.23798429    -1.42000
C334        C  0.69143950  0.26752154  0.33769549     1.09500
C335        C  0.70517414  0.21922045  0.13088033     1.09600
C336        C  0.68711283  0.14416000  0.20631493     1.09500
C337        C  0.68394019  0.34249321  0.26487229     1.09500
O338        O  0.30957297  0.65167987  0.26527901    -0.80100
O339        O  0.16750158  0.65687176  0.26708994    -0.80100
O340        O  0.27804742  0.71208496  0.37085333    -0.80100
O341        O  0.19997746  0.73077114  0.16767084    -0.80100
O342        O  0.23835008  0.65553056  0.33386408    -0.80200
O343        O  0.23313429  0.66302513  0.19311989    -0.80100
O344        O  0.13549715  0.71898167  0.22990494    -0.80100
O345        O  0.34253027  0.71080754  0.30676618    -0.80100
C346        C  0.34317644  0.66740314  0.29205571     1.09600
C347        C  0.13814694  0.67265445  0.23682204     1.09500
C348        C  0.26526195  0.66670477  0.36688498     1.09600
C349        C  0.20845780  0.68566086  0.16247444     1.09500
O350        O  0.27867253  0.75821708  0.17320399    -0.80100
O351        O  0.20307910  0.75218998  0.36774053    -0.80200
O352        O  0.32307439  0.80802439  0.26622812    -0.80100
O353        O  0.16628169  0.81154235  0.27544621    -0.80100
O354        O  0.13383098  0.74469656  0.30599169    -0.80200
O355        O  0.34725269  0.74405587  0.23106499    -0.80100
O356        O  0.24275292  0.81980799  0.20490272    -0.80100
O357        O  0.24862582  0.81013535  0.33371593    -0.80100
Co358      Co  0.28664279  0.70432457  0.22058316     1.51500
Co359      Co  0.19037898  0.70288137  0.31525520     1.51700
Co360      Co  0.29312526  0.76048399  0.31532951     1.51600
Co361      Co  0.19105089  0.76985097  0.22438552     1.51500
O362        O  0.24043648  0.73451601  0.26870228    -1.42000
C363        C  0.27188732  0.80422047  0.17501940     1.09500
C364        C  0.21757377  0.79755200  0.36400137     1.09600
C365        C  0.35177522  0.78967187  0.23747315     1.09500
C366        C  0.13402634  0.79068352  0.30133759     1.09500
C367        C  0.04450895  0.81387099  0.39640625    -0.09100
C368        C  0.04998250  0.86487809  0.40239392     0.07100
C369        C  0.07323639  0.89248731  0.36551817    -0.02900
C370        C  0.09864454  0.86828793  0.33110520    -0.07300
C371        C  0.09848615  0.81690329  0.32994777     0.06200
C372        C  0.06654953  0.79027940  0.36054192    -0.02400
Br373      Br  0.04941461  0.72135495  0.35672100    -0.02100
H374        H  0.02233259  0.79136959  0.41998322     0.10100
H375        H  0.12040960  0.88982992  0.30640911     0.08100
Br376      Br  0.07789933  0.96246360  0.36055971    -0.02500
C377        C  0.92473982  0.09600653  0.32754662    -0.09100
C378        C  0.90761111  0.06878743  0.36720203     0.07100
C379        C  0.85654611  0.06096433  0.36965343    -0.02900
C380        C  0.82599583  0.08024850  0.33541162    -0.07300
C381        C  0.84387376  0.10823444  0.29752769     0.06200
C382        C  0.89428574  0.11342963  0.29262161    -0.02400
Br383      Br  0.92505645  0.14281604  0.23861576    -0.02100
H384        H  0.96254002  0.10506944  0.32316163     0.10100
H385        H  0.78741704  0.07573178  0.34009901     0.08100
Br386      Br  0.82270849  0.03028893  0.42022356    -0.02500
C387        C  0.89508438  0.19744458  0.37437141    -0.09100
C388        C  0.84420413  0.19420942  0.37481068     0.07100
C389        C  0.82174935  0.16586054  0.41094764    -0.02900
C390        C  0.84913481  0.13818459  0.44118922    -0.07300
C391        C  0.89955956  0.13896559  0.44083382     0.06200
C392        C  0.92250086  0.17153888  0.40799524    -0.02400
Br393      Br  0.99103277  0.18099151  0.40810953    -0.02100
H394        H  0.91356686  0.21980420  0.34794714     0.10100
H395        H  0.83057195  0.11779658  0.46777694     0.03900
Br396      Br  0.75377432  0.16411262  0.42501572    -0.02500
C397        C  0.14321201  0.86388359  0.45255462    -0.09100
C398        C  0.14648583  0.91373066  0.43731617     0.07100
C399        C  0.18040201  0.92466368  0.40067660    -0.02900
C400        C  0.20386566  0.88651222  0.37894849    -0.07300
C401        C  0.19689700  0.83679026  0.39286161     0.06200
C402        C  0.16832750  0.82645017  0.43214534    -0.02400
Br403      Br  0.16388277  0.76262925  0.46194939    -0.02100
H404        H  0.12049872  0.85286674  0.48087062     0.10100
H405        H  0.22688802  0.89599572  0.34963267     0.08100
Br406      Br  0.19627619  0.98903185  0.37424281    -0.02500
C407        C  0.12634458  0.04035873  0.69210318    -0.09100
C408        C  0.11975481  0.04951992  0.64415134     0.07100
C409        C  0.15611031  0.07889426  0.62101895    -0.02900
C410        C  0.18781350  0.10819621  0.64690332    -0.07300
C411        C  0.18617685  0.10592499  0.69528931     0.06200
C412        C  0.16041715  0.06659149  0.71716001    -0.02400
Br413      Br  0.16985649  0.04624272  0.78060964    -0.02100
H414        H  0.10459487  0.01264972  0.71073496     0.10100
H415        H  0.21149500  0.13490592  0.62910892     0.08100
Br416      Br  0.16553241  0.08186827  0.55555969    -0.02500
C417        C  0.13539617  0.21519855  0.62751390    -0.09100
C418        C  0.11800461  0.20690858  0.67281808     0.07100
C419        C  0.08278000  0.16953552  0.68056908    -0.02900
C420        C  0.06712958  0.14097720  0.64404341    -0.07300
C421        C  0.08418225  0.14784224  0.59813420     0.06200
C422        C  0.11965061  0.18665836  0.59062535    -0.02400
Br423      Br  0.15333240  0.20234584  0.53351897    -0.02100
H424        H  0.16332406  0.24319016  0.62070604     0.10100
H425        H  0.04069163  0.11271222  0.65245799     0.08100
Br426      Br  0.05336155  0.15482506  0.73966304    -0.02500
C427        C  0.60528612  0.27842498  0.35684258    -0.09100
C428        C  0.65379232  0.28934465  0.36704185     0.07100
C429        C  0.66387655  0.32481434  0.40045865    -0.02900
C430        C  0.62644266  0.35168555  0.41848997    -0.07300
C431        C  0.57735923  0.34266913  0.40737821     0.06200
C432        C  0.56753476  0.30357608  0.37633216    -0.02400
Br433      Br  0.50529346  0.28192854  0.35426263    -0.02100
H434        H  0.59629644  0.25079271  0.33180848     0.10100
H435        H  0.63643231  0.38147542  0.44045163     0.08100
Br436      Br  0.72752984  0.33935205  0.42329672    -0.02500
C437        C  0.34702830  0.42531025  0.61540216    -0.09100
C438        C  0.38507112  0.44991264  0.63876342     0.07100
C439        C  0.37791367  0.45717285  0.68719067    -0.02900
C440        C  0.33853540  0.43495003  0.71021638    -0.07300
C441        C  0.30475736  0.40466834  0.68796033     0.06200
C442        C  0.30682192  0.40368473  0.63920970    -0.02400
Br443      Br  0.25731194  0.37203706  0.60342430    -0.02100
H444        H  0.34945765  0.42142943  0.57836101     0.10100
H445        H  0.33595427  0.43937528  0.74720297     0.08100
Br446      Br  0.41801311  0.49535723  0.72817707    -0.02500
C447        C  0.46210294  0.65473500  0.34702290    -0.09100
C448        C  0.45549167  0.61125428  0.37352072     0.07100
C449        C  0.41980881  0.57687844  0.35791415    -0.02900
C450        C  0.38583311  0.59206189  0.32421196    -0.07300
C451        C  0.38717180  0.64057777  0.30611528     0.06200
C452        C  0.42963889  0.66918243  0.31385841    -0.02400
Br453      Br  0.44415316  0.73290410  0.28658623    -0.02100
H454        H  0.49136338  0.68049610  0.35439455     0.10100
H455        H  0.35728395  0.56692008  0.31436226     0.08100
Br456      Br  0.41342712  0.51060395  0.38154903    -0.02500
C457        C  0.62303694  0.42830643  0.34771244    -0.09100
C458        C  0.57337647  0.42100868  0.33933798     0.07100
C459        C  0.56114967  0.39097036  0.30075851    -0.02900
C460        C  0.59724352  0.36688914  0.27631505    -0.07300
C461        C  0.64646929  0.37391059  0.28633078     0.06200
C462        C  0.65874225  0.40863674  0.32034663    -0.02400
Br463      Br  0.72330854  0.43311078  0.33202377    -0.02100
H464        H  0.63498083  0.44884649  0.37711713     0.10100
H465        H  0.58648450  0.34185102  0.24953143     0.08100
Br466      Br  0.49679423  0.37825804  0.27870542    -0.02500
C467        C  0.31549545  0.54615687  0.41704619    -0.09100
C468        C  0.33112951  0.56190839  0.46093747     0.07100
C469        C  0.29606921  0.59471014  0.47703979    -0.02900
C470        C  0.28186752  0.63381985  0.44759261    -0.07300
C471        C  0.28130358  0.62677545  0.39985146     0.06200
C472        C  0.29035165  0.57809598  0.38625673    -0.02400
Br473      Br  0.26267191  0.55096439  0.33127848    -0.02100
H474        H  0.32113961  0.50884871  0.40742729     0.10100
H475        H  0.26286658  0.66416636  0.46135314     0.08100
Br476      Br  0.24386386  0.56946295  0.51495998    -0.02500
C477        C  0.43682714  0.35831063  0.64670845    -0.09100
C478        C  0.42810987  0.35585801  0.59903176     0.07100
C479        C  0.38817368  0.32688819  0.58468941    -0.02900
C480        C  0.35780914  0.30287990  0.61791759    -0.07300
C481        C  0.36701979  0.30728492  0.66568830     0.06200
C482        C  0.40804490  0.33497877  0.67958669    -0.02400
Br483      Br  0.43131102  0.34192291  0.74214571    -0.02100
H484        H  0.46913332  0.37556837  0.65855591     0.10100
H485        H  0.32678681  0.28143569  0.60640180     0.08100
Br486      Br  0.37470827  0.31969136  0.52034699    -0.02500
C487        C  0.88895245  0.29531814  0.02515562    -0.09100
C488        C  0.91784956  0.33754493  0.03624030     0.07100
C489        C  0.93529046  0.33518364  0.08178222    -0.02900
C490        C  0.90799304  0.30913857  0.11667527    -0.07300
C491        C  0.86305407  0.28670369  0.10586913     0.06200
C492        C  0.85677628  0.27466996  0.05898308    -0.02400
Br493      Br  0.80335432  0.23482610  0.03847891    -0.02100
H494        H  0.87971139  0.28944891  0.98949256     0.10100
H495        H  0.92041920  0.30838540  0.15191825     0.08100
Br496      Br  0.99595766  0.36662302  0.09557538    -0.02500
C497        C  0.07968393  0.33919486  0.93968849    -0.09100
C498        C  0.03440619  0.35049297  0.92129488     0.07100
C499        C  0.01831293  0.31406961  0.89095488    -0.02900
C500        C  0.05074639  0.29849003  0.85736220    -0.07300
C501        C  0.09998925  0.30059681  0.86740450     0.06200
C502        C  0.11173249  0.31092198  0.91392489    -0.02400
Br503      Br  0.16061882  0.27544901  0.94617609    -0.02100
H504        H  0.08934461  0.35174686  0.97358422     0.10100
H505        H  0.03811783  0.27691548  0.82877063     0.08100
Br506      Br  0.97494591  0.26448010  0.91497831    -0.02500
C507        C  0.78941651  0.41488423  0.14508486    -0.09100
C508        C  0.82442269  0.39103977  0.17239772     0.07100
C509        C  0.87286945  0.39991341  0.16122936    -0.02900
C510        C  0.88459817  0.42534608  0.11927285    -0.07300
C511        C  0.84894019  0.44781321  0.09145677     0.06200
C512        C  0.80066649  0.44367997  0.10649495    -0.02400
Br513      Br  0.74757076  0.48125809  0.08373982    -0.02100
H514        H  0.75165335  0.41270589  0.15432649     0.10100
H515        H  0.92195807  0.43202902  0.11057466     0.08100
Br516      Br  0.92251968  0.38751976  0.20578671    -0.02500
C517        C  0.11966920  0.58756290  0.20734457    -0.09100
C518        C  0.10938905  0.63785156  0.20694642     0.07100
C519        C  0.07571778  0.65443851  0.17383800    -0.02900
C520        C  0.05465950  0.62185781  0.14262841    -0.07300
C521        C  0.06512266  0.57166489  0.14139231     0.06200
C522        C  0.09903493  0.55497245  0.17503004    -0.02400
Br523      Br  0.12419676  0.49009001  0.17640974    -0.02100
H524        H  0.14616699  0.57375507  0.23141877     0.10100
H525        H  0.02995351  0.63703658  0.11831794     0.08100
Br526      Br  0.05626932  0.72137243  0.16700926    -0.02500
C527        C  0.14341923  0.44463917  0.88395673    -0.09100
C528        C  0.14107447  0.43272014  0.93130176     0.07100
C529        C  0.17713166  0.40148896  0.94941945    -0.02900
C530        C  0.20935958  0.38004980  0.91898246    -0.07300
C531        C  0.20635192  0.38940086  0.87115895     0.06200
C532        C  0.17671894  0.42662165  0.85484264    -0.02400
Br533      Br  0.17780626  0.45548320  0.79283516    -0.02100
H534        H  0.11902724  0.46916768  0.86780575     0.10100
H535        H  0.23413542  0.35333921  0.93234899     0.08100
Br536      Br  0.18101744  0.38113590  0.01356316    -0.02500
C537        C  0.16379936  0.69585608  0.08964675    -0.09100
C538        C  0.18595484  0.66316084  0.12046099     0.07100
C539        C  0.18154761  0.61271247  0.11085037    -0.02900
C540        C  0.14613205  0.59602733  0.07876897    -0.07300
C541        C  0.11528970  0.62946914  0.05627131     0.06200
C542        C  0.12995893  0.68030016  0.05770475    -0.02400
Br543      Br  0.10878361  0.73327698  0.01742346    -0.02100
H544        H  0.17121026  0.73505017  0.09147505     0.10100
H545        H  0.14015647  0.55697500  0.07446951     0.08100
Br546      Br  0.22320695  0.56656368  0.13979970    -0.02500
C547        C  0.32945307  0.80859318  0.11139760    -0.09100
C548        C  0.29975644  0.83525536  0.13962685     0.07100
C549        C  0.29798911  0.88648265  0.13023894    -0.02900
C550        C  0.32776602  0.90900152  0.09482236    -0.07300
C551        C  0.35659981  0.88077653  0.06578856     0.06200
C552        C  0.35180084  0.82888847  0.07293817    -0.02400
Br553      Br  0.35665945  0.77961784  0.02748267    -0.02100
H554        H  0.33191702  0.76918002  0.11582515     0.10100
H555        H  0.32523667  0.94800096  0.08740212     0.08100
Br556      Br  0.25357820  0.92611246  0.16154704    -0.02500
C557        C  0.42015663  0.78776586  0.18251300    -0.09100
C558        C  0.38937281  0.81718146  0.20735427     0.07100
C559        C  0.39204237  0.86815419  0.19641266    -0.02900
C560        C  0.41803149  0.88632269  0.15651681    -0.07300
C561        C  0.44352274  0.85480938  0.12771405     0.06200
C562        C  0.44717501  0.80520062  0.14460894    -0.02400
Br563      Br  0.48640154  0.75523261  0.11971020    -0.02100
H564        H  0.42154754  0.74889252  0.19091635     0.10100
H565        H  0.41637748  0.92487384  0.14672409     0.08100
Br566      Br  0.35914531  0.91357394  0.23312664    -0.02500
C567        C  0.44059442  0.12520343  0.82800291    -0.09100
C568        C  0.43943152  0.11542377  0.87611113     0.07100
C569        C  0.42035880  0.15209470  0.90414740    -0.02900
C570        C  0.39378528  0.19000071  0.88370995    -0.07300
C571        C  0.38971777  0.19457325  0.83554626     0.06200
C572        C  0.41857867  0.16522732  0.80808809    -0.02400
Br573      Br  0.43145440  0.17706352  0.74313743    -0.02100
H574        H  0.46024124  0.10234981  0.80520402     0.10100
H575        H  0.37534706  0.21492286  0.90550328     0.08100
Br576      Br  0.43226168  0.15573747  0.96892167    -0.02500
C577        C  0.34583424  0.06766442  0.88947590    -0.09100
C578        C  0.34883753  0.08058036  0.93623974     0.07100
C579        C  0.31860905  0.11883614  0.94988568    -0.02900
C580        C  0.28999531  0.14295117  0.91669351    -0.07300
C581        C  0.28906881  0.12892086  0.87014221     0.06200
C582        C  0.31554111  0.08884923  0.85761602    -0.02400
Br583      Br  0.31218988  0.05887160  0.79811738    -0.02100
H584        H  0.36847810  0.04127041  0.87581849     0.10100
H585        H  0.26961513  0.17389861  0.92714425     0.08100
Br586      Br  0.31702942  0.14359822  0.01142032    -0.02500
C587        C  0.59620804  0.17727682  0.06957399    -0.09100
C588        C  0.61088727  0.13379681  0.04782888     0.07100
C589        C  0.66235652  0.13037934  0.04251901    -0.02900
C590        C  0.69313643  0.16008537  0.06869927    -0.07300
C591        C  0.67587922  0.19862911  0.09371359     0.06200
C592        C  0.62844626  0.21150070  0.08752068    -0.02400
Br593      Br  0.60547077  0.27462510  0.10372406    -0.02100
H594        H  0.55924359  0.18581670  0.07469658     0.10100
H595        H  0.73107781  0.15235880  0.07014256     0.08100
Br596      Br  0.69963493  0.08954277  0.00369696    -0.02500
C597        C  0.57491610  0.09049300  0.14258001    -0.09100
C598        C  0.58858167  0.04126125  0.13830644     0.07100
C599        C  0.62134067  0.02802337  0.17371334    -0.02900
C600        C  0.65933189  0.06081204  0.18415485    -0.07300
C601        C  0.65000499  0.11057941  0.18469179     0.06200
C602        C  0.60330552  0.12405909  0.16944280    -0.02400
Br603      Br  0.57545592  0.18368914  0.18783914    -0.02100
H604        H  0.54371780  0.10323674  0.12404947     0.10100
H605        H  0.68971882  0.04804206  0.20387261     0.08100
Br606      Br  0.59359539  0.00004960  0.22955086    -0.02500
C607        C  0.81841508  0.89593479  0.37554382    -0.09100
C608        C  0.81910343  0.89855118  0.32678203     0.07100
C609        C  0.84911122  0.93464391  0.30457670    -0.02900
C610        C  0.88423554  0.95893487  0.32973582    -0.07300
C611        C  0.88907131  0.95097561  0.37784180     0.06200
C612        C  0.85225257  0.92331256  0.40130752    -0.02400
Br613      Br  0.84607841  0.92305721  0.46767097    -0.02100
H614        H  0.79311007  0.87110886  0.39359658     0.10100
H615        H  0.90820938  0.98444298  0.31089161     0.08100
Br616      Br  0.84540346  0.95349045  0.24003028    -0.02500
C617        C  0.70881282  0.85954632  0.09776599    -0.09100
C618        C  0.71405665  0.87339151  0.14440651     0.07100
C619        C  0.68649684  0.91214574  0.15875800    -0.02900
C620        C  0.64898403  0.92866285  0.13131671    -0.07300
C621        C  0.64412282  0.91887087  0.08446591     0.06200
C622        C  0.67627787  0.88413344  0.06731566    -0.02400
Br623      Br  0.67398021  0.86716770  0.00365971    -0.02100
H624        H  0.72955983  0.82990116  0.08506197     0.10100
H625        H  0.62268727  0.94931527  0.14672957     0.08100
Br626      Br  0.70142429  0.94679714  0.21433981    -0.02500
C627        C  0.91102674  0.68277897  0.13715967    -0.09100
C628        C  0.90509710  0.67925953  0.18511899     0.07100
C629        C  0.92693186  0.63966333  0.20899203    -0.02900
C630        C  0.94778843  0.60241366  0.18451947    -0.07300
C631        C  0.94735035  0.60139235  0.13576089     0.06200
C632        C  0.93213391  0.64528553  0.11243285    -0.02400
Br633      Br  0.93213031  0.65752514  0.04712790    -0.02100
H634        H  0.89671599  0.71391420  0.11826664     0.10100
H635        H  0.96374850  0.57324878  0.20470506     0.08100
Br636      Br  0.92917693  0.63136597  0.27524219    -0.02500
C637        C  0.86854680  0.79032456  0.40707773    -0.09100
C638        C  0.88237257  0.79584237  0.36033315     0.07100
C639        C  0.92199783  0.82798368  0.34972268    -0.02900
C640        C  0.94251051  0.85709088  0.38368707    -0.07300
C641        C  0.92940528  0.85293382  0.43063314     0.06200
C642        C  0.89211042  0.81719394  0.44213288    -0.02400
Br643      Br  0.86790812  0.80520673  0.50382857    -0.02100
H644        H  0.83846369  0.76573092  0.41644987     0.10100
H645        H  0.96955893  0.88354491  0.37223144     0.08100
Br646      Br  0.95306001  0.83363620  0.29024512    -0.02500
C647        C  0.65720056  0.56841570  0.28861642    -0.09100
C648        C  0.69117941  0.59071291  0.31772986     0.07100
C649        C  0.69058414  0.57530456  0.36477127    -0.02900
C650        C  0.65049402  0.54707558  0.38276168    -0.07300
C651        C  0.61054651  0.53474530  0.35438561     0.06200
C652        C  0.61806002  0.54057376  0.30561065    -0.02400
Br653      Br  0.57968639  0.51159763  0.25716596    -0.02100
H654        H  0.65938321  0.57457352  0.25152951     0.10100
H655        H  0.64862127  0.53869176  0.41953159     0.08100
Br656      Br  0.74299873  0.59180556  0.40508719    -0.02500
C657        C  0.80788611  0.58573617  0.15541556    -0.09100
C658        C  0.79680041  0.63301439  0.14429723     0.07100
C659        C  0.80489910  0.65160511  0.09916175    -0.02900
C660        C  0.82887032  0.62286821  0.06798058    -0.07300
C661        C  0.85149168  0.57876182  0.08223543     0.06200
C662        C  0.83929176  0.56109110  0.12845603    -0.02400
Br663      Br  0.86571717  0.51556553  0.17096496    -0.02100
H664        H  0.79662889  0.57081601  0.18916055     0.10100
H665        H  0.83381404  0.63794079  0.03325460     0.08100
Br666      Br  0.78894036  0.71687377  0.07913939    -0.02500
C667        C  0.58753035  0.83966601  0.17939687    -0.09100
C668        C  0.61559216  0.80025955  0.16776525     0.07100
C669        C  0.61409053  0.78381419  0.12206483    -0.02900
C670        C  0.59038615  0.81057738  0.08809607    -0.07300
C671        C  0.56288264  0.85130790  0.09855628     0.06200
C672        C  0.56084351  0.86485956  0.14575313    -0.02400
Br673      Br  0.52847102  0.92076746  0.16751301    -0.02100
H674        H  0.58842806  0.85281141  0.21435192     0.10100
H675        H  0.59365091  0.79860667  0.05307080     0.08100
Br676      Br  0.64184594  0.72390014  0.10302407    -0.02500
C677        C  0.65634422  0.68349988  0.39783039    -0.09100
C678        C  0.63891518  0.69114132  0.35238928     0.07100
C679        C  0.59732115  0.66485210  0.33882431    -0.02900
C680        C  0.57518769  0.63178958  0.36937811    -0.07300
C681        C  0.58993602  0.62399922  0.41544688     0.06200
C682        C  0.63222742  0.65029720  0.42924047    -0.02400
Br683      Br  0.65765768  0.64149663  0.49036377    -0.02100
H684        H  0.68918349  0.70240263  0.40861805     0.10100
H685        H  0.54451951  0.61302569  0.35624594     0.08100
Br686      Br  0.56580150  0.67245929  0.27953152    -0.02500
C687        C  0.87245637  0.41262120  0.77807719    -0.09100
C688        C  0.87980075  0.36164355  0.77284689     0.07100
C689        C  0.92170395  0.34370108  0.79386542    -0.02900
C690        C  0.94920673  0.37241947  0.82368427    -0.07300
C691        C  0.93828471  0.41999898  0.83689517     0.06200
C692        C  0.90265982  0.44188913  0.80811198    -0.02400
Br693      Br  0.89769607  0.51174196  0.80544828    -0.02100
H694        H  0.84308383  0.42956211  0.75979950     0.10100
H695        H  0.98319373  0.35910092  0.83148797     0.08100
Br696      Br  0.94739279  0.28071239  0.78106040    -0.02500
C697        C  0.90912864  0.13059894  0.68122034    -0.09100
C698        C  0.90473403  0.18134672  0.68352873     0.07100
C699        C  0.93807406  0.21218004  0.65783916    -0.02900
C700        C  0.96815347  0.19215135  0.62603597    -0.07300
C701        C  0.96506477  0.14216480  0.61614277     0.06200
C702        C  0.93822405  0.11066776  0.64733052    -0.02400
Br703      Br  0.93430393  0.04126582  0.64354979    -0.02100
H704        H  0.88747926  0.10641156  0.70352414     0.10100
H705        H  0.99259038  0.21706336  0.60712582     0.08100
Br706      Br  0.94361583  0.28298914  0.65889125    -0.02500
C707        C  0.68580158  0.10393897  0.87072141    -0.09100
C708        C  0.69688090  0.15506175  0.86953725     0.07100
C709        C  0.67826541  0.18237074  0.90598147    -0.02900
C710        C  0.64205993  0.16251661  0.93460091    -0.07300
C711        C  0.62513628  0.11340639  0.93208308     0.06200
C712        C  0.65156938  0.08273470  0.90310749    -0.02400
Br713      Br  0.64153932  0.01266932  0.90644991    -0.02100
H714        H  0.70163939  0.08096748  0.84537694     0.10100
H715        H  0.62781342  0.18621763  0.96016624     0.08100
Br716      Br  0.70019691  0.24823148  0.91974169    -0.02500
C717        C  0.79950188  0.39092419  0.85686497    -0.09100
C718        C  0.80734265  0.34029875  0.85763781     0.07100
C719        C  0.84615970  0.32223316  0.88414782    -0.02900
C720        C  0.87683885  0.35481796  0.90737271    -0.07300
C721        C  0.86569628  0.40439090  0.91116088     0.06200
C722        C  0.82778538  0.42274791  0.88362892    -0.02400
Br723      Br  0.80793540  0.48906891  0.88884118    -0.02100
H724        H  0.77018447  0.40565284  0.83674776     0.10100
H725        H  0.90508516  0.34014404  0.92874233     0.08100
Br726      Br  0.85635747  0.25331545  0.89539167    -0.02500
C727        C  0.58079031  0.17497647  0.81668958    -0.09100
C728        C  0.61074473  0.15455489  0.78519402     0.07100
C729        C  0.61251800  0.10288893  0.78519472    -0.02900
C730        C  0.58646296  0.07392392  0.81824653    -0.07300
C731        C  0.55613682  0.09350350  0.85231730     0.06200
C732        C  0.55356690  0.14692404  0.84918427    -0.02400
Br733      Br  0.51758182  0.19480051  0.87994447    -0.02100
H734        H  0.57935753  0.21474837  0.81597764     0.10100
H735        H  0.59154273  0.03480002  0.81776034     0.08100
Br736      Br  0.65067751  0.06843558  0.74224615    -0.02500
C737        C  0.61308254  0.42996268  0.63079991    -0.09100
C738        C  0.56338973  0.41943447  0.63471481     0.07100
C739        C  0.55267659  0.39565017  0.67862906    -0.02900
C740        C  0.57982502  0.35516883  0.69147678    -0.07300
C741        C  0.62774048  0.35516979  0.67686147     0.06200
C742        C  0.64593482  0.39880200  0.65365346    -0.02400
Br743      Br  0.71194444  0.42110475  0.65815618    -0.02100
H744        H  0.62604011  0.46048822  0.60910216     0.10100
H745        H  0.56767386  0.33027940  0.71930129     0.08100
Br746      Br  0.54318287  0.43390884  0.73238037    -0.02500
C747        C  0.68328420  0.35801556  0.56131220    -0.09100
C748        C  0.68346829  0.30866623  0.57770318     0.07100
C749        C  0.64771821  0.27600216  0.55925514    -0.02900
C750        C  0.61197437  0.29342274  0.53018825    -0.07300
C751        C  0.60600284  0.34375792  0.52100331     0.06200
C752        C  0.64453823  0.37603433  0.53425209    -0.02400
Br753      Br  0.64684809  0.44439931  0.51591507    -0.02100
H754        H  0.71251068  0.38300051  0.57042898     0.10100
H755        H  0.58688795  0.26625055  0.51704690     0.08100
Br756      Br  0.64012711  0.20634725  0.57346114    -0.02500
C757        C  0.83252813  0.04960998  0.60452323    -0.09100
C758        C  0.84050559  0.06143074  0.55720237     0.07100
C759        C  0.80000183  0.08751364  0.54059517    -0.02900
C760        C  0.78369151  0.12722655  0.56617828    -0.07300
C761        C  0.79286227  0.12780519  0.61400634     0.06200
C762        C  0.80996861  0.08328366  0.63364593    -0.02400
Br763      Br  0.79676107  0.06372840  0.69670650    -0.02100
H764        H  0.84401435  0.01480576  0.61863815     0.10100
H765        H  0.75868835  0.15261056  0.55087762     0.08100
Br766      Br  0.74992861  0.05256684  0.50887671    -0.02500
C767        C  0.41393959  0.82778569  0.85490910    -0.09100
C768        C  0.38087674  0.79147049  0.87225653     0.07100
C769        C  0.39443140  0.76929714  0.91473448    -0.02900
C770        C  0.42860198  0.79422618  0.94318950    -0.07300
C771        C  0.44172522  0.84438090  0.93350285     0.06200
C772        C  0.44613233  0.85263354  0.88543782    -0.02400
Br773      Br  0.50126249  0.88951556  0.86250067    -0.02100
H774        H  0.41567341  0.83501757  0.81817723     0.10100
H775        H  0.44006881  0.77652696  0.97480679     0.08100
Br776      Br  0.37144290  0.70428407  0.93188553    -0.02500
C777        C  0.12584252  0.69848484  0.87368092    -0.09100
C778        C  0.17423250  0.68947923  0.88581435     0.07100
C779        C  0.18246091  0.66142524  0.92593632    -0.02900
C780        C  0.14318661  0.64150122  0.95104219    -0.07300
C781        C  0.09476391  0.64458541  0.93614029     0.06200
C782        C  0.08670899  0.67653273  0.89773592    -0.02400
Br783      Br  0.02395963  0.69190532  0.87452398    -0.02100
H784        H  0.11775234  0.72149475  0.84373964     0.10100
H785        H  0.15186162  0.62304269  0.98242114     0.08100
Br786      Br  0.24571905  0.64773755  0.94826949    -0.02500
C787        C  0.17188667  0.91516014  0.69042705    -0.09100
C788        C  0.15497444  0.87235204  0.71223815     0.07100
C789        C  0.10604471  0.85877669  0.70700415    -0.02900
C790        C  0.07772711  0.88498851  0.67469975    -0.07300
C791        C  0.09690262  0.92504552  0.64657783     0.06200
C792        C  0.14669589  0.93781920  0.65512971    -0.02400
Br793      Br  0.19349897  0.97601926  0.62103449    -0.02100
H794        H  0.20845713  0.92807644  0.69765542     0.10100
H795        H  0.04042948  0.87305665  0.67084807     0.08100
Br796      Br  0.07587223  0.80666760  0.74383659    -0.02500
C797        C  0.29095380  0.92870436  0.84367891    -0.09100
C798        C  0.32651166  0.90774535  0.81627340     0.07100
C799        C  0.37395748  0.92371183  0.82389685    -0.02900
C800        C  0.38594541  0.94424200  0.86693555    -0.07300
C801        C  0.35052798  0.95756362  0.89878400     0.06200
C802        C  0.30209516  0.95425610  0.88334073    -0.02400
Br803      Br  0.24816453  0.98596488  0.90986049    -0.02100
H804        H  0.25315858  0.92417728  0.83505863     0.10100
H805        H  0.42303992  0.94852567  0.87636405     0.08100
Br806      Br  0.41993186  0.92494331  0.77444881    -0.02500
C807        C  0.41174005  0.70500655  0.61965263    -0.09100
C808        C  0.36095742  0.70874982  0.61883826     0.07100
C809        C  0.33612854  0.68192245  0.58468721    -0.02900
C810        C  0.35885726  0.64597848  0.56129999    -0.07300
C811        C  0.40870831  0.64082074  0.55997679     0.06200
C812        C  0.43558850  0.67376958  0.58842036    -0.02400
Br813      Br  0.50440341  0.67417735  0.58769394    -0.02100
H814        H  0.43276702  0.72570818  0.64441413     0.10100
H815        H  0.33702222  0.62419184  0.53924694     0.08100
Br816      Br  0.27128702  0.69397479  0.56387375    -0.02500
C817        C  0.21314757  0.84442888  0.58229448    -0.09100
C818        C  0.18378781  0.81379633  0.61126815     0.07100
C819        C  0.13355628  0.81574554  0.60377133    -0.02900
C820        C  0.11463146  0.85439936  0.57565233    -0.07300
C821        C  0.14505396  0.89127591  0.55422975     0.06200
C822        C  0.19496220  0.88099229  0.55328790    -0.02400
Br823      Br  0.24243478  0.91053547  0.51150531    -0.02100
H824        H  0.25176714  0.84049374  0.58214371     0.10100
H825        H  0.07600008  0.85725389  0.57290852     0.08100
Br826      Br  0.08988213  0.76622179  0.62907744    -0.02500
C827        C  0.33775625  0.58519692  0.65768848    -0.09100
C828        C  0.35668704  0.61520035  0.69226371     0.07100
C829        C  0.40720757  0.61956262  0.69715567    -0.02900
C830        C  0.43703773  0.59662109  0.66621896    -0.07300
C831        C  0.41846942  0.56669554  0.63077712     0.06200
C832        C  0.36751735  0.56169207  0.62708485    -0.02400
Br833      Br  0.33446566  0.52994932  0.57753376    -0.02100
H834        H  0.29918758  0.58193111  0.65257224     0.10100
H835        H  0.47535977  0.60283583  0.67020605     0.08100
Br836      Br  0.43921713  0.65598589  0.74483172    -0.02500
C837        C  0.12453103  0.60246113  0.81226698    -0.09100
C838        C  0.17531322  0.60353398  0.80843602     0.07100
C839        C  0.20046189  0.57212467  0.83942687    -0.02900
C840        C  0.17752397  0.55087907  0.87779662    -0.07300
C841        C  0.12794939  0.55430255  0.88566046     0.06200
C842        C  0.10068621  0.57579579  0.84931589    -0.02400
Br843      Br  0.03188643  0.57114129  0.84944558    -0.02100
H844        H  0.10356505  0.62345191  0.78768113     0.10100
H845        H  0.19937818  0.52972004  0.90143168     0.08100
Br846      Br  0.26696430  0.55455150  0.83371831    -0.02500
loop_ 
_geom_bond_atom_site_label_1 
_geom_bond_atom_site_label_2 
_geom_bond_distance 
_geom_bond_site_symmetry_2 
_ccdc_geom_bond_type 
O1            C9   1.258       .  A
O1          Co21   1.957       .  S
O2           C10   1.284       .  A
O2          Co22   2.067       .  S
O3           C11   1.280       .  A
O3          Co23   2.010       .  S
O4           C12   1.297       .  A
O4          Co24   2.123       .  S
O5           C11   1.290       .  A
O5          Co22   2.034       .  S
O6           C12   1.250       .  A
O6          Co21   1.949       .  S
O7           C10   1.244       .  A
O7          Co24   1.938       .  S
O8            C9   1.270       .  A
O8          Co23   2.031       .  S
C9          C828   1.487       .  S
C10         C798   1.505       .  S
C11         C808   1.517       .  S
C12         C768   1.512       .  S
O13          C26   1.273       .  A
O13         Co21   2.077       .  S
O14          C27   1.268       .  A
O14         Co22   2.004       .  S
O15          C28   1.283       .  A
O15         Co23   2.032       .  S
O16          C29   1.263       .  A
O16         Co24   1.966       .  S
O17          C29   1.288       .  A
O17         Co22   2.036       .  S
O18          C28   1.268       .  A
O18         Co21   2.001       .  S
O19          C26   1.234       .  A
O19         Co24   1.893       .  S
O20          C27   1.281       .  A
O20         Co23   2.045       .  S
Co21         O25   2.100       .  S
Co22         O25   2.102       .  S
Co23         O25   2.109       .  S
Co24         O25   2.066       .  S
C26         C778   1.491       .  S
C27         C818   1.520       .  S
C28         C838   1.512       .  S
C29         C788   1.485       .  S
O30          C38   1.272       .  A
O30         Co50   2.057       .  S
O31          C39   1.259       .  A
O31         Co51   1.984       .  S
O32          C40   1.294       .  A
O32         Co52   2.099       .  S
O33          C41   1.290       .  A
O33         Co53   2.048       .  S
O34          C40   1.251       .  A
O34         Co51   1.930       .  S
O35          C41   1.294       .  A
O35         Co50   2.046       .  S
O36          C39   1.254       .  A
O36         Co53   1.995       .  S
O37          C38   1.242       .  A
O37         Co52   1.983       .  S
C38         C748   1.516       .  S
C39         C718   1.483       .  S
C40         C741   1.480       .  S
C41         C688   1.532       .  S
O42          C55   1.248       .  A
O42         Co50   1.953       .  S
O43          C56   1.271       .  A
O43         Co51   2.042       .  S
O44          C57   1.263       .  A
O44         Co52   1.955       .  S
O45          C58   1.289       .  A
O45         Co53   2.036       .  S
O46          C58   1.278       .  A
O46         Co51   2.012       .  S
O47          C57   1.301       .  A
O47         Co50   2.123       .  S
O48          C55   1.276       .  A
O48         Co53   2.024       .  S
O49          C56   1.241       .  A
O49         Co52   1.943       .  S
Co50         O54   2.109       .  S
Co51         O54   2.091       .  S
Co52         O54   2.084       .  S
Co53         O54   2.106       .  S
C55         C698   1.486       .  S
C56         C728   1.493       .  S
C57         C761   1.505       .  S
C58         C708   1.515       .  S
O59          C67   1.244       .  A
O59         Co79   1.923       .  S
O60          C68   1.269       .  A
O60         Co80   2.019       .  S
O61          C69   1.289       .  A
O61         Co81   2.043       .  S
O62          C70   1.295       .  A
O62         Co82   2.060       .  S
O63          C69   1.276       .  A
O63         Co80   2.000       .  S
O64          C70   1.248       .  A
O64         Co79   1.899       .  S
O65          C68   1.251       .  A
O65         Co82   1.997       .  S
O66          C67   1.262       .  A
O66         Co81   2.040       .  S
C67         C668   1.475       .  S
C68         C628   1.502       .  S
C69         C618   1.509       .  S
C70         C658   1.452       .  S
O71          C84   1.258       .  A
O71         Co79   2.001       .  S
O72          C85   1.261       .  A
O72         Co80   2.001       .  S
O73          C86   1.264       .  A
O73         Co81   1.965       .  S
O74          C87   1.281       .  A
O74         Co82   1.984       .  S
O75          C87   1.288       .  A
O75         Co80   2.051       .  S
O76          C86   1.277       .  A
O76         Co79   2.013       .  S
O77          C84   1.267       .  A
O77         Co82   2.019       .  S
O78          C85   1.257       .  A
O78         Co81   1.973       .  S
Co79         O83   2.061       .  S
Co80         O83   2.098       .  S
Co81         O83   2.097       .  S
Co82         O83   2.094       .  S
C84         C648   1.504       .  S
C85         C608   1.479       .  S
C86         C678   1.477       .  S
C87         C638   1.501       .  S
C88          C89   1.505   1_564  A
C88          C93   1.494       .  A
C88          N94   1.526       .  S
C89          C90   1.508       .  A
C89         N101   1.532       .  S
C90          C91   1.509   1_545  A
C90         N115   1.543       .  S
C91          C92   1.504   1_556  A
C91         N108   1.516   1_565  S
C92          C93   1.496       .  A
C92         N129   1.542   1_554  S
C93         N122   1.503       .  S
N94          C98   1.395   1_565  A
N94          C95   1.402       .  A
C95         C621   1.545       .  S
C95          C96   1.373       .  A
C96          C97   1.364   1_565  A
C96          H99   1.086       .  S
C97          C98   1.372       .  A
C97         H100   1.081       .  S
C98         C598   1.540       .  S
N101        C105   1.374       .  A
N101        C102   1.379   1_556  A
C102        C588   1.564       .  S
C102        C103   1.374       .  A
C103        C104   1.349   1_554  A
C103        H106   1.076       .  S
C104        C105   1.394       .  A
C104        H107   1.062       .  S
C105        C711   1.529       .  S
N108        C112   1.363   1_545  A
N108        C109   1.388       .  A
C109        C578   1.546       .  S
C109        C110   1.378   1_556  A
C110        C111   1.354   1_544  A
C110        H113   1.078       .  S
C111        C112   1.395       .  A
C111        H114   1.079       .  S
C112        C801   1.526       .  S
N115        C119   1.392       .  A
N115        C116   1.358       .  A
C116        C568   1.510       .  S
C116        C117   1.387       .  A
C117        C118   1.353       .  A
C117        H120   1.083       .  S
C118        C119   1.385       .  A
C118        H121   1.081       .  S
C119        C731   1.579       .  S
N122        C126   1.377       .  A
N122        C123   1.360       .  A
C123        C671   1.516       .  S
C123        C124   1.387       .  A
C124        C125   1.359       .  A
C124        H127   1.080       .  S
C125        C126   1.383       .  A
C125        H128   1.067       .  S
C126        C561   1.544       .  S
N129        C133   1.402       .  A
N129        C130   1.412   1_556  A
C130        C551   1.505       .  S
C130        C131   1.380   1_554  A
C131        C132   1.330       .  A
C131        H134   1.086       .  S
C132        C133   1.387       .  A
C132        H135   1.075       .  S
C133        C771   1.522       .  S
C136        C137   1.523   1_554  A
C136        C141   1.489       .  A
C136        N163   1.513       .  S
C137        C138   1.471       .  A
C137        N177   1.521       .  S
C138        C139   1.502   1_655  A
C138        N170   1.524       .  S
C139        C140   1.490       .  A
C139        N149   1.496       .  S
C140        C141   1.464   1_456  A
C140        N142   1.527       .  S
C141        N156   1.517   1_655  S
N142        C146   1.375   1_556  A
N142        C143   1.382       .  A
C143        C781   1.530       .  S
C143        C144   1.377       .  A
C144        C145   1.359   1_556  A
C144        H147   1.079       .  S
C145        C146   1.369       .  A
C145        H148   1.082       .  S
C146        C541   1.532       .  S
N149        C153   1.384       .  A
N149        C150   1.375       .  A
C150        C841   1.530       .  S
C150        C151   1.401       .  A
C151        C152   1.352       .  A
C151        H154   1.079       .  S
C152        C153   1.379       .  A
C152        H155   1.076   1_556  S
C153        C528   1.523       .  S
N156        C160   1.390       .  A
N156        C157   1.363   1_455  A
C157        C631   1.540       .  S
C157        C158   1.402       .  A
C158        C159   1.354   1_655  A
C158        H161   1.073       .  S
C159        C160   1.376       .  A
C159        H162   1.075       .  S
C160        C521   1.554       .  S
N163        C167   1.341       .  A
N163        C164   1.380       .  A
C164        C661   1.557       .  S
C164        C165   1.382       .  A
C165        C166   1.350       .  A
C165        H168   1.082   1_554  S
C166        C167   1.393       .  A
C166        H169   1.078       .  S
C167        C511   1.495       .  S
N170        C174   1.376   1_655  A
N170        C171   1.413       .  A
C171        C691   1.569       .  S
C171        C172   1.381   1_655  A
C172        C173   1.363       .  A
C172        H175   1.085       .  S
C173        C174   1.379       .  A
C173        H176   1.082       .  S
C174        C498   1.520       .  S
N177        C181   1.385       .  A
N177        C178   1.395   1_556  A
C178        C488   1.521       .  S
C178        C179   1.392       .  A
C179        C180   1.330   1_554  A
C179        H182   1.081       .  S
C180        C181   1.387       .  A
C180        H183   1.086       .  S
C181        C721   1.477       .  S
C184        C185   1.524       .  A
C184        C189   1.530       .  A
C184        N190   1.533       .  S
C185        C186   1.486       .  A
C185        N218   1.506       .  S
C186        C187   1.522       .  A
C186        N197   1.574       .  S
C187        C188   1.503       .  A
C187        N211   1.486       .  S
C188        C189   1.478       .  A
C188        N204   1.547       .  S
C189        N225   1.526       .  S
N190        C194   1.394       .  A
N190        C191   1.404       .  A
C191        C738   1.531       .  S
C191        C192   1.389       .  A
C192        C193   1.340       .  A
C192        H195   1.078       .  S
C193        C194   1.385       .  A
C193        H196   1.087       .  S
C194        C478   1.489       .  S
N197        C201   1.419       .  A
N197        C198   1.418       .  A
C198        C468   1.561       .  S
C198        C199   1.380       .  A
C199        C200   1.340       .  A
C199        H202   1.079       .  S
C200        C201   1.385       .  A
C200        H203   1.088       .  S
C201        C811   1.541       .  S
N204        C208   1.396       .  A
N204        C205   1.373       .  A
C205        C651   1.537       .  S
C205        C206   1.381       .  A
C206        C207   1.354       .  A
C206        H209   1.081       .  S
C207        C208   1.377       .  A
C207        H210   1.073       .  S
C208        C458   1.556       .  S
N211        C215   1.391       .  A
N211        C212   1.355       .  A
C212        C448   1.518       .  S
C212        C213   1.398       .  A
C213        C214   1.358       .  A
C213        H216   1.083       .  S
C214        C215   1.378       .  A
C214        H217   1.084       .  S
C215        C681   1.534       .  S
N218        C222   1.369       .  A
N218        C219   1.369       .  A
C219        C831   1.529       .  S
C219        C220   1.386       .  A
C220        C221   1.361       .  A
C220        H223   1.080       .  S
C221        C222   1.372       .  A
C221        H224   1.059       .  S
C222        C438   1.538       .  S
N225        C229   1.388       .  A
N225        C226   1.359       .  A
C226        C751   1.536       .  S
C226        C227   1.404       .  A
C227        C228   1.344       .  A
C227        H230   1.081       .  S
C228        C229   1.372       .  A
C228        H231   1.071       .  S
C229        C431   1.561       .  S
C232        C233   1.471   1_565  A
C232        C237   1.485       .  A
C232        N252   1.531       .  S
C233        C234   1.509       .  A
C233        N245   1.531   1_545  S
C234        C235   1.534   1_455  A
C234        N238   1.509       .  S
C235        C236   1.479       .  A
C235        N259   1.557       .  S
C236        C237   1.513   1_645  A
C236        N266   1.516       .  S
C237        N273   1.517   1_455  S
N238        C242   1.346   1_455  A
N238        C239   1.388       .  A
C239        C421   1.558       .  S
C239        C240   1.375       .  A
C240        C241   1.347       .  A
C240        H243   1.072       .  S
C241        C242   1.403   1_455  A
C241        H244   1.083   1_455  S
C242        C701   1.517       .  S
N245        C249   1.388       .  A
N245        C246   1.361   1_565  A
C246        C408   1.513       .  S
C246        C247   1.382       .  A
C247        C248   1.360   1_545  A
C247        H250   1.084       .  S
C248        C249   1.383       .  A
C248        H251   1.082       .  S
C249        C791   1.555       .  S
N252        C256   1.390       .  A
N252        C253   1.368       .  A
C253        C821   1.537       .  S
C253        C254   1.386       .  A
C254        C255   1.351       .  A
C254        H257   1.070       .  S
C255        C256   1.372       .  A
C255        H258   1.072   1_565  S
C256        C398   1.561       .  S
N259        C263   1.411       .  A
N259        C260   1.406       .  A
C260        C391   1.508       .  S
C260        C261   1.384       .  A
C261        C262   1.334       .  A
C261        H264   1.087       .  S
C262        C263   1.386       .  A
C262        H265   1.076       .  S
C263        C758   1.547       .  S
N266        C270   1.360   1_545  A
N266        C267   1.382       .  A
C267        C378   1.560       .  S
C267        C268   1.388       .  A
C268        C269   1.364   1_545  A
C268        H271   1.079   1_655  S
C269        C270   1.383       .  A
C269        H272   1.082       .  S
C270        C611   1.502       .  S
N273        C277   1.385       .  A
N273        C274   1.369   1_655  A
C274        C368   1.534       .  S
C274        C275   1.397       .  A
C275        C276   1.362   1_455  A
C275        H278   1.082       .  S
C276        C277   1.384       .  A
C276        H279   1.078       .  S
C277        C641   1.541       .  S
O280        C288   1.256       .  A
O280       Co300   1.950       .  S
O281        C289   1.264       .  A
O281       Co301   2.004       .  S
O282        C290   1.280       .  A
O282       Co302   2.049       .  S
O283        C291   1.276       .  A
O283       Co303   2.014       .  S
O284        C290   1.258       .  A
O284       Co301   1.930       .  S
O285        C291   1.267       .  A
O285       Co300   1.965       .  S
O286        C289   1.266       .  A
O286       Co303   2.019       .  S
O287        C288   1.262       .  A
O287       Co302   2.009       .  S
C288        C411   1.472       .  S
C289        C441   1.502       .  S
C290        C418   1.487       .  S
C291        C481   1.476       .  S
O292        C305   1.252       .  A
O292       Co300   1.974       .  S
O293        C306   1.276       .  A
O293       Co301   2.072       .  S
O294        C307   1.258       .  A
O294       Co302   1.936       .  S
O295        C308   1.267       .  A
O295       Co303   1.965       .  S
O296        C308   1.271       .  A
O296       Co301   1.985       .  S
O297        C307   1.281       .  A
O297       Co300   2.043       .  S
O298        C305   1.266       .  A
O298       Co303   2.000       .  S
O299        C306   1.248       .  A
O299       Co302   1.958       .  S
Co300       O304   2.091       .  S
Co301       O304   2.094       .  S
Co302       O304   2.092       .  S
Co303       O304   2.101       .  S
C305        C571   1.478       .  S
C306        C501   1.500       .  S
C307        C581   1.475       .  S
C308        C531   1.467       .  S
O309        C317   1.270       .  A
O309       Co329   2.042       .  S
O310        C318   1.233       .  A
O310       Co330   1.923       .  S
O311        C319   1.264       .  A
O311       Co331   1.971       .  S
O312        C320   1.275       .  A
O312       Co332   1.998       .  S
O313        C319   1.297       .  A
O313       Co330   2.122       .  S
O314        C320   1.276       .  A
O314       Co329   2.014       .  S
O315        C318   1.272       .  A
O315       Co332   2.063       .  S
O316        C317   1.254       .  A
O316       Co331   1.958       .  S
C317        C381   1.499       .  S
C318        C508   1.488       .  S
C319        C491   1.517       .  S
C320        C388   1.500       .  S
O321        C334   1.262       .  A
O321       Co329   1.956       .  S
O322        C335   1.257       .  A
O322       Co330   1.945       .  S
O323        C336   1.286       .  A
O323       Co331   2.073       .  S
O324        C337   1.283       .  A
O324       Co332   2.054       .  S
O325        C337   1.286       .  A
O325       Co330   2.018       .  S
O326        C336   1.259       .  A
O326       Co329   1.973       .  S
O327        C334   1.273       .  A
O327       Co332   2.048       .  S
O328        C335   1.259       .  A
O328       Co331   1.999       .  S
Co329       O333   2.089       .  S
Co330       O333   2.088       .  S
Co331       O333   2.114       .  S
Co332       O333   2.130       .  S
C334        C428   1.499       .  S
C335        C591   1.462       .  S
C336        C601   1.503       .  S
C337        C461   1.517       .  S
O338        C346   1.283       .  A
O338       Co358   2.023       .  S
O339        C347   1.273       .  A
O339       Co359   1.992       .  S
O340        C348   1.283       .  A
O340       Co360   2.082       .  S
O341        C349   1.273       .  A
O341       Co361   2.004       .  S
O342        C348   1.251       .  A
O342       Co359   1.953       .  S
O343        C349   1.278       .  A
O343       Co358   2.011       .  S
O344        C347   1.277       .  A
O344       Co361   2.042       .  S
O345        C346   1.270       .  A
O345       Co360   1.983       .  S
C346        C451   1.497       .  S
C347        C518   1.510       .  S
C348        C471   1.505       .  S
C349        C538   1.504       .  S
O350        C363   1.277       .  A
O350       Co358   1.998       .  S
O351        C364   1.288       .  A
O351       Co359   2.080       .  S
O352        C365   1.278       .  A
O352       Co360   2.052       .  S
O353        C366   1.276       .  A
O353       Co361   2.027       .  S
O354        C366   1.256       .  A
O354       Co359   1.987       .  S
O355        C365   1.264       .  A
O355       Co358   1.999       .  S
O356        C363   1.278       .  A
O356       Co361   2.014       .  S
O357        C364   1.263       .  A
O357       Co360   1.951       .  S
Co358       O362   2.101       .  S
Co359       O362   2.085       .  S
Co360       O362   2.109       .  S
Co361       O362   2.115       .  S
C363        C548   1.506       .  S
C364        C401   1.506       .  S
C365        C558   1.524       .  S
C366        C371   1.503       .  S
C367        C368   1.409       .  A
C367        C372   1.391       .  A
C367        H374   1.082       .  S
C368        C369   1.429       .  A
C369        C370   1.414       .  A
C369       Br376   1.908       .  S
C370        C371   1.402       .  A
C370        H375   1.083       .  S
C371        C372   1.420       .  A
C372       Br373   1.928       .  S
C377        C378   1.421       .  A
C377        C382   1.401       .  A
C377        H384   1.078       .  S
C378        C379   1.430       .  A
C379        C380   1.407       .  A
C379       Br386   1.898       .  S
C380        C381   1.399       .  A
C380        H385   1.083       .  S
C381        C382   1.411       .  A
C382       Br383   1.923       .  S
C387        C388   1.414       .  A
C387        C392   1.422       .  A
C387        H394   1.082       .  S
C388        C389   1.414       .  A
C389        C390   1.384       .  A
C389       Br396   1.932       .  S
C390        C391   1.401       .  A
C390        H395   1.060       .  S
C391        C392   1.418       .  A
C392       Br393   1.914       .  S
C397        C398   1.416       .  A
C397        C402   1.401       .  A
C397        H404   1.065       .  S
C398        C399   1.437       .  A
C399        C400   1.411       .  A
C399       Br406   1.930       .  S
C400        C401   1.409       .  A
C400        H405   1.083       .  S
C401        C402   1.404       .  A
C402       Br403   1.919       .  S
C407        C408   1.416       .  A
C407        C412   1.384       .  A
C407        H414   1.082       .  S
C408        C409   1.423       .  A
C409        C410   1.400       .  A
C409       Br416   1.912       .  S
C410        C411   1.401       .  A
C410        H415   1.083       .  S
C411        C412   1.403       .  A
C412       Br413   1.923       .  S
C417        C418   1.407       .  A
C417        C422   1.400       .  A
C417        H424   1.083       .  S
C418        C419   1.401       .  A
C419        C420   1.392       .  A
C419       Br426   1.922       .  S
C420        C421   1.416       .  A
C420        H425   1.069       .  S
C421        C422   1.433       .  A
C422       Br423   1.930       .  S
C427        C428   1.404       .  A
C427        C432   1.402       .  A
C427        H434   1.083       .  S
C428        C429   1.409       .  A
C429        C430   1.403       .  A
C429       Br436   1.921       .  S
C430        C431   1.416       .  A
C430        H435   1.075       .  S
C431        C432   1.433       .  A
C432       Br433   1.923       .  S
C437        C438   1.415       .  A
C437        C442   1.415       .  A
C437        H444   1.083       .  S
C438        C439   1.437       .  A
C439        C440   1.393       .  A
C439       Br446   1.929       .  S
C440        C441   1.398       .  A
C440        H445   1.084       .  S
C441        C442   1.414       .  A
C442       Br443   1.918       .  S
C447        C448   1.399       .  A
C447        C452   1.376       .  A
C447        H454   1.081       .  S
C448        C449   1.423       .  A
C449        C450   1.420       .  A
C449       Br456   1.915       .  S
C450        C451   1.407       .  A
C450        H455   1.074       .  S
C451        C452   1.413       .  A
C452       Br453   1.916       .  S
C457        C458   1.410       .  A
C457        C462   1.402       .  A
C457        H464   1.078       .  S
C458        C459   1.438       .  A
C459        C460   1.419       .  A
C459       Br466   1.922       .  S
C460        C461   1.406       .  A
C460        H465   1.083       .  S
C461        C462   1.419       .  A
C462       Br463   1.926       .  S
C467        C468   1.416       .  A
C467        C472   1.427       .  A
C467        H474   1.079       .  S
C468        C469   1.433       .  A
C469        C470   1.412       .  A
C469       Br476   1.917       .  S
C470        C471   1.401       .  A
C470        H475   1.083       .  S
C471        C472   1.426       .  A
C472       Br473   1.923       .  S
C477        C478   1.404       .  A
C477        C482   1.371       .  A
C477        H484   1.061       .  S
C478        C479   1.409       .  A
C479        C480   1.411       .  A
C479       Br486   1.914       .  S
C480        C481   1.414       .  A
C480        H485   1.083       .  S
C481        C482   1.410       .  A
C482       Br483   1.935       .  S
C487        C488   1.424       .  A
C487        C492   1.418       .  A
C487        H494   1.079   1_554  S
C488        C489   1.405       .  A
C489        C490   1.422       .  A
C489       Br496   1.912       .  S
C490        C491   1.410       .  A
C490        H495   1.077       .  S
C491        C492   1.415       .  A
C492       Br493   1.913       .  S
C497        C498   1.407       .  A
C497        C502   1.424       .  A
C497        H504   1.079       .  S
C498        C499   1.406       .  A
C499        C500   1.411       .  A
C499       Br506   1.896   1_455  S
C500        C501   1.399       .  A
C500        H505   1.081       .  S
C501        C502   1.419       .  A
C502       Br503   1.921       .  S
C507        C508   1.417       .  A
C507        C512   1.376       .  A
C507        H514   1.083       .  S
C508        C509   1.397       .  A
C509        C510   1.413       .  A
C509       Br516   1.920       .  S
C510        C511   1.420       .  A
C510        H515   1.077       .  S
C511        C512   1.411       .  A
C512       Br513   1.930       .  S
C517        C518   1.410       .  A
C517        C522   1.416       .  A
C517        H524   1.083       .  S
C518        C519   1.415       .  A
C519        C520   1.399       .  A
C519       Br526   1.925       .  S
C520        C521   1.410       .  A
C520        H525   1.068       .  S
C521        C522   1.430       .  A
C522       Br523   1.924       .  S
C527        C528   1.400       .  A
C527        C532   1.366       .  A
C527        H534   1.067       .  S
C528        C529   1.427       .  A
C529        C530   1.410       .  A
C529       Br536   1.926   1_556  S
C530        C531   1.403       .  A
C530        H535   1.083       .  S
C531        C532   1.400       .  A
C532       Br533   1.938       .  S
C537        C538   1.400       .  A
C537        C542   1.383       .  A
C537        H544   1.084       .  S
C538        C539   1.412       .  A
C539        C540   1.425       .  A
C539       Br546   1.914       .  S
C540        C541   1.417       .  A
C540        H545   1.082       .  S
C541        C542   1.432       .  A
C542       Br543   1.936       .  S
C547        C548   1.399       .  A
C547        C552   1.368       .  A
C547        H554   1.083       .  S
C548        C549   1.417       .  A
C549        C550   1.429       .  A
C549       Br556   1.915       .  S
C550        C551   1.423       .  A
C550        H555   1.083       .  S
C551        C552   1.425       .  A
C552       Br553   1.916       .  S
C557        C558   1.406       .  A
C557        C562   1.393       .  A
C557        H564   1.082       .  S
C558        C559   1.415       .  A
C559        C560   1.430       .  A
C559       Br566   1.913       .  S
C560        C561   1.422       .  A
C560        H565   1.083       .  S
C561        C562   1.431       .  A
C562       Br563   1.931       .  S
C567        C568   1.410       .  A
C567        C572   1.380       .  A
C567        H574   1.082       .  S
C568        C569   1.423       .  A
C569        C570   1.407       .  A
C569       Br576   1.909       .  S
C570        C571   1.401       .  A
C570        H575   1.083       .  S
C571        C572   1.414       .  A
C572       Br573   1.930       .  S
C577        C578   1.410       .  A
C577        C582   1.376       .  A
C577        H584   1.058       .  S
C578        C579   1.427       .  A
C579        C580   1.409       .  A
C579       Br586   1.925   1_556  S
C580        C581   1.412       .  A
C580        H585   1.083       .  S
C581        C582   1.395       .  A
C582       Br583   1.929       .  S
C587        C588   1.430       .  A
C587        C592   1.383       .  A
C587        H594   1.073       .  S
C588        C589   1.446       .  A
C589        C590   1.396       .  A
C589       Br596   1.932       .  S
C590        C591   1.393       .  A
C590        H595   1.083       .  S
C591        C592   1.387       .  A
C592       Br593   1.927       .  S
C597        C598   1.416       .  A
C597        C602   1.433       .  A
C597        H604   1.082       .  S
C598        C599   1.418       .  A
C599        C600   1.398       .  A
C599       Br606   1.918       .  S
C600        C601   1.390       .  A
C600        H605   1.081       .  S
C601        C602   1.428       .  A
C602       Br603   1.914       .  S
C607        C608   1.411       .  A
C607        C612   1.407       .  A
C607        H614   1.083       .  S
C608        C609   1.408       .  A
C609        C610   1.380       .  A
C609       Br616   1.927       .  S
C610        C611   1.410       .  A
C610        H615   1.082       .  S
C611        C612   1.412       .  A
C612       Br613   1.929       .  S
C617        C618   1.419       .  A
C617        C622   1.432       .  A
C617        H624   1.082       .  S
C618        C619   1.400       .  A
C619        C620   1.390       .  A
C619       Br626   1.927       .  S
C620        C621   1.395       .  A
C620        H625   1.046       .  S
C621        C622   1.425       .  A
C622       Br623   1.914       .  S
C627        C628   1.398       .  A
C627        C632   1.410       .  A
C627        H634   1.083       .  S
C628        C629   1.418       .  A
C629        C630   1.398       .  A
C629       Br636   1.926       .  S
C630        C631   1.413       .  A
C630        H635   1.080       .  S
C631        C632   1.433       .  A
C632       Br633   1.910       .  S
C637        C638   1.409       .  A
C637        C642   1.416       .  A
C637        H644   1.083       .  S
C638        C639   1.411       .  A
C639        C640   1.391       .  A
C639       Br646   1.927       .  S
C640        C641   1.408       .  A
C640        H645   1.069       .  S
C641        C642   1.430       .  A
C642       Br643   1.924       .  S
C647        C648   1.400       .  A
C647        C652   1.387       .  A
C647        H654   1.083       .  S
C648        C649   1.413       .  A
C649        C650   1.422       .  A
C649       Br656   1.916       .  S
C650        C651   1.417       .  A
C650        H655   1.083       .  S
C651        C652   1.431       .  A
C652       Br653   1.932       .  S
C657        C658   1.365       .  A
C657        C662   1.377       .  A
C657        H664   1.089       .  S
C658        C659   1.403       .  A
C659        C660   1.397       .  A
C659       Br666   1.921       .  S
C660        C661   1.426       .  A
C660        H665   1.082       .  S
C661        C662   1.445       .  A
C662       Br663   1.888       .  S
C667        C668   1.399       .  A
C667        C672   1.402       .  A
C667        H674   1.083       .  S
C668        C669   1.409       .  A
C669        C670   1.387       .  A
C669       Br676   1.926       .  S
C670        C671   1.410       .  A
C670        H675   1.079       .  S
C671        C672   1.427       .  A
C672       Br673   1.919       .  S
C677        C678   1.413       .  A
C677        C682   1.416       .  A
C677        H684   1.083       .  S
C678        C679   1.401       .  A
C679        C680   1.374       .  A
C679       Br686   1.935       .  S
C680        C681   1.407       .  A
C680        H685   1.055       .  S
C681        C682   1.419       .  A
C682       Br683   1.916       .  S
C687        C688   1.424       .  A
C687        C692   1.446       .  A
C687        H694   1.082       .  S
C688        C689   1.410       .  A
C689        C690   1.392       .  A
C689       Br696   1.928       .  S
C690        C691   1.406       .  A
C690        H695   1.046       .  S
C691        C692   1.429       .  A
C692       Br693   1.913       .  S
C697        C698   1.396       .  A
C697        C702   1.406       .  A
C697        H704   1.078       .  S
C698        C699   1.424       .  A
C699        C700   1.381       .  A
C699       Br706   1.932       .  S
C700        C701   1.400       .  A
C700        H705   1.081       .  S
C701        C702   1.421       .  A
C702       Br703   1.897       .  S
C707        C708   1.416       .  A
C707        C712   1.432       .  A
C707        H714   1.082       .  S
C708        C709   1.418       .  A
C709        C710   1.389       .  A
C709       Br716   1.928       .  S
C710        C711   1.407       .  A
C710        H715   1.081       .  S
C711        C712   1.424       .  A
C712       Br713   1.920       .  S
C717        C718   1.404       .  A
C717        C722   1.400       .  A
C717        H724   1.083       .  S
C718        C719   1.417       .  A
C719        C720   1.396       .  A
C719       Br726   1.927       .  S
C720        C721   1.404       .  A
C720        H725   1.080       .  S
C721        C722   1.417       .  A
C722       Br723   1.919       .  S
C727        C728   1.378       .  A
C727        C732   1.400       .  A
C727        H734   1.086       .  S
C728        C729   1.411       .  A
C729        C730   1.407       .  A
C729       Br736   1.922       .  S
C730        C731   1.426       .  A
C730        H735   1.081       .  S
C731        C732   1.460       .  A
C732       Br733   1.913       .  S
C737        C738   1.405       .  A
C737        C742   1.419       .  A
C737        H744   1.079       .  S
C738        C739   1.436       .  A
C739        C740   1.400       .  A
C739       Br746   1.922       .  S
C740        C741   1.398       .  A
C740        H745   1.084       .  S
C741        C742   1.426       .  A
C742       Br743   1.918       .  S
C747        C748   1.413       .  A
C747        C752   1.424       .  A
C747        H754   1.079       .  S
C748        C749   1.425       .  A
C749        C750   1.389       .  A
C749       Br756   1.935       .  S
C750        C751   1.405       .  A
C750        H755   1.077       .  S
C751        C752   1.422       .  A
C752       Br753   1.921       .  S
C757        C758   1.414       .  A
C757        C762   1.426       .  A
C757        H764   1.080       .  S
C758        C759   1.428       .  A
C759        C760   1.417       .  A
C759       Br766   1.909       .  S
C760        C761   1.408       .  A
C760        H765   1.083       .  S
C761        C762   1.422       .  A
C762       Br763   1.919       .  S
C767        C768   1.409       .  A
C767        C772   1.425       .  A
C767        H774   1.076       .  S
C768        C769   1.411       .  A
C769        C770   1.424       .  A
C769       Br776   1.914       .  S
C770        C771   1.422       .  A
C770        H775   1.075       .  S
C771        C772   1.408       .  A
C772       Br773   1.912       .  S
C777        C778   1.418       .  A
C777        C782   1.399       .  A
C777        H784   1.083       .  S
C778        C779   1.395       .  A
C779        C780   1.397       .  A
C779       Br786   1.918       .  S
C780        C781   1.418       .  A
C780        H785   1.057       .  S
C781        C782   1.414       .  A
C782       Br783   1.924       .  S
C787        C788   1.378       .  A
C787        C792   1.381       .  A
C787        H794   1.086       .  S
C788        C789   1.406       .  A
C789        C790   1.415       .  A
C789       Br796   1.920       .  S
C790        C791   1.430       .  A
C790        H795   1.082       .  S
C791        C792   1.439       .  A
C792       Br793   1.897       .  S
C797        C798   1.415       .  A
C797        C802   1.389       .  A
C797        H804   1.083       .  S
C798        C799   1.394       .  A
C799        C800   1.416       .  A
C799       Br806   1.919       .  S
C800        C801   1.414       .  A
C800        H805   1.070       .  S
C801        C802   1.419       .  A
C802       Br803   1.928       .  S
C807        C808   1.419       .  A
C807        C812   1.438       .  A
C807        H814   1.083       .  S
C808        C809   1.412       .  A
C809        C810   1.379       .  A
C809       Br816   1.936       .  S
C810        C811   1.399       .  A
C810        H815   1.061       .  S
C811        C812   1.428       .  A
C812       Br813   1.913       .  S
C817        C818   1.407       .  A
C817        C822   1.392       .  A
C817        H824   1.083       .  S
C818        C819   1.416       .  A
C819        C820   1.427       .  A
C819       Br826   1.913       .  S
C820        C821   1.419       .  A
C820        H825   1.082       .  S
C821        C822   1.426       .  A
C822       Br823   1.930       .  S
C827        C828   1.402       .  A
C827        C832   1.397       .  A
C827        H834   1.083       .  S
C828        C829   1.413       .  A
C829        C830   1.397       .  A
C829       Br836   1.923       .  S
C830        C831   1.415       .  A
C830        H835   1.080       .  S
C831        C832   1.423       .  A
C832       Br833   1.914       .  S
C837        C838   1.416       .  A
C837        C842   1.428       .  A
C837        H844   1.083       .  S
C838        C839   1.422       .  A
C839        C840   1.383       .  A
C839       Br846   1.935       .  S
C840        C841   1.404       .  A
C840        H845   1.082       .  S
C841        C842   1.420       .  A
C842       Br843   1.912       .  S
