geometry optimzed in LAMMPS
_audit_creation_date              2020-11-30 
_audit_creation_method            'lammps2cif' 
_symmetry_space_group_name_H-M    'P1' 
_symmetry_Int_Tables_number       1 
_symmetry_cell_setting            triclinic 
loop_ 
_symmetry_equiv_pos_as_xyz 
  x,y,z 
_cell_length_a                    35.79391467 
_cell_length_b                    36.89950704680599 
_cell_length_c                    37.96448935356969 
_cell_angle_alpha                 90.10011696606671 
_cell_angle_beta                  88.84317091288455 
_cell_angle_gamma                 90.16253323387292 
loop_ 
_atom_site_label 
_atom_site_type_symbol 
_atom_site_fract_x 
_atom_site_fract_y 
_atom_site_fract_z 
_atom_site_charge 
O1          O  0.55525489  0.93787522  0.49380371    -0.80000
O2          O  0.44784504  0.94532136  0.51175493    -0.80000
O3          O  0.51116465  0.95647340  0.56070592    -0.80000
O4          O  0.47258067  0.98798597  0.41748126    -0.79900
O5          O  0.45584529  0.96850239  0.58284006    -0.80100
O6          O  0.50926479  0.94279285  0.43323418    -0.80000
O7          O  0.42382971  0.98286937  0.47258587    -0.80000
O8          O  0.57668520  0.97529074  0.53253674    -0.80000
C9          C  0.58132069  0.94705469  0.51392045     1.09700
C10         C  0.42153808  0.95409933  0.49149241     1.09600
C11         C  0.48802676  0.95452885  0.58688347     1.09700
C12         C  0.48730584  0.95737343  0.41126117     1.09600
O13         O  0.54042053  0.01151756  0.42059551    -0.80000
O14         O  0.48672523  0.03268492  0.56296750    -0.80000
O15         O  0.55106294  0.04591696  0.51365177    -0.80000
O16         O  0.45249273  0.05235183  0.49821555    -0.80000
O17         O  0.42213629  0.01513335  0.53149198    -0.80000
O18         O  0.58419537  0.01101287  0.47772100    -0.80000
O19         O  0.50233980  0.05450793  0.44016323    -0.79900
O20         O  0.54210447  0.01990660  0.58274732    -0.80000
Co21       Co  0.54449084  0.97584248  0.45882645     1.51500
Co22       Co  0.47051300  0.98673040  0.53600075     1.51700
Co23       Co  0.52856397  0.00322830  0.53617968     1.51600
Co24       Co  0.46484662  0.01909996  0.45933700     1.51500
O25         O  0.50204569  0.99486268  0.49068726    -1.41900
C26         C  0.52716209  0.04311140  0.41841374     1.09700
C27         C  0.51086461  0.03555865  0.58742801     1.09700
C28         C  0.58157313  0.03916658  0.49752402     1.09700
C29         C  0.42195706  0.04364151  0.51291843     1.09700
O30         O  0.94900301  0.53810025  0.50728408    -0.80000
O31         O  0.94586436  0.43818877  0.48853369    -0.80000
O32         O  0.99264036  0.52289163  0.41221732    -0.80000
O33         O  0.96301336  0.47699181  0.55597195    -0.79900
O34         O  0.94827218  0.48455275  0.42976217    -0.80100
O35         O  0.97354857  0.53079015  0.57748136    -0.80000
O36         O  0.98447306  0.41516371  0.52523973    -0.80000
O37         O  0.98502936  0.56783252  0.46911737    -0.80000
C38         C  0.95612662  0.56658053  0.48975065     1.09700
C39         C  0.95536325  0.41157700  0.50700475     1.09600
C40         C  0.96050790  0.50915169  0.40898654     1.09700
C41         C  0.96008079  0.49913959  0.58195140     1.09600
O42         O  0.04079399  0.50420923  0.55579795    -0.80000
O43         O  0.02041333  0.45804288  0.41320661    -0.80000
O44         O  0.05872381  0.54284189  0.49123664    -0.80000
O45         O  0.05630538  0.44412448  0.50577199    -0.80000
O46         O  0.02176944  0.41239751  0.46953514    -0.80000
O47         O  0.01902372  0.56750090  0.52671902    -0.80000
O48         O  0.02971927  0.44961056  0.57594776    -0.79900
O49         O  0.06275789  0.49701617  0.43225302    -0.80000
Co50       Co  0.99278758  0.51852259  0.53046991     1.51500
Co51       Co  0.98415339  0.45067606  0.45254139     1.51700
Co52       Co  0.02459369  0.53039047  0.45333236     1.51600
Co53       Co  0.01169618  0.46314167  0.52969889     1.51500
O54         O  0.00280004  0.49082991  0.48462753    -1.41900
C55         C  0.04438314  0.48068798  0.58039113     1.09700
C56         C  0.05232647  0.47278934  0.41064485     1.09700
C57         C  0.04768113  0.57100807  0.50692959     1.09700
C58         C  0.05048823  0.41497306  0.48917344     1.09700
O59         O  0.45234837  0.50935392  0.06248162    -0.80000
O60         O  0.55459257  0.48632486  0.05786754    -0.80000
O61         O  0.48762360  0.43875967  0.04323476    -0.80000
O62         O  0.54412834  0.58421199  0.02268233    -0.79900
O63         O  0.54272866  0.41570507  0.03151445    -0.80100
O64         O  0.50318361  0.56651858  0.06375385    -0.80000
O65         O  0.58711746  0.52433597  0.02408905    -0.80000
O66         O  0.42507787  0.47509117  0.02529151    -0.80000
C67         C  0.42275026  0.49436828  0.05284820     1.09700
C68         C  0.58430455  0.50430199  0.05162204     1.09600
C69         C  0.50987702  0.41145732  0.04416851     1.09700
C70         C  0.52922275  0.58748206  0.05308510     1.09600
O71         O  0.47807317  0.58862596  0.99743459    -0.80000
O72         O  0.51481944  0.43988469  0.97026823    -0.80000
O73         O  0.45720669  0.49548267  0.95851477    -0.80000
O74         O  0.56074511  0.50569544  0.95319756    -0.80000
O75         O  0.58157798  0.46651128  0.99000544    -0.80000
O76         O  0.42720112  0.53393582  0.99314888    -0.80000
O77         O  0.51550951  0.56745565  0.95525666    -0.79900
O78         O  0.45673795  0.42301965  0.98052950    -0.80000
Co79       Co  0.46736442  0.54726866  0.02898662     1.51500
Co80       Co  0.53188774  0.46457672  0.01620933     1.51700
Co81       Co  0.47467116  0.46845666  0.99914592     1.51600
Co82       Co  0.54923708  0.54320452  0.98897905     1.51500
O83         O  0.50649381  0.51276396  0.00886100    -1.41900
C84         C  0.49408000  0.59197394  0.96753935     1.09700
C85         C  0.48836500  0.41663573  0.96613069     1.09700
C86         C  0.42832088  0.51399914  0.96547415     1.09700
C87         C  0.58677611  0.48499135  0.96223633     1.09700
C88         C  0.58284683  0.92439035  0.77676777     0.03300
C89         C  0.55885352  0.93178017  0.74827221    -0.12800
C90         C  0.56143497  0.91105096  0.71667063     0.00800
C91         C  0.58617973  0.88124130  0.71575614    -0.11400
C92         C  0.61176156  0.87575003  0.74255696     0.03300
C93         C  0.61054770  0.89797283  0.77216559    -0.10800
H94         H  0.53840347  0.95320553  0.75068439     0.08900
H95         H  0.58666867  0.86284497  0.69355249     0.06400
H96         H  0.63062610  0.89341435  0.79269055     0.06300
C97         C  0.75050702  0.71269498  0.77853493     0.03300
C98         C  0.72461740  0.74136904  0.77675437    -0.12800
C99         C  0.72432306  0.76467110  0.74762636     0.00800
C100        C  0.75124746  0.76091585  0.72075511    -0.11400
C101        C  0.77823564  0.73365811  0.72229128     0.03300
C102        C  0.77734988  0.70923972  0.75076365    -0.10800
H103        H  0.70502378  0.74649927  0.79818823     0.08900
H104        H  0.75131938  0.77949810  0.69865797     0.06400
H105        H  0.79732403  0.68728504  0.75069498     0.06300
C106        C  0.92078874  0.70279921  0.55901881     0.03300
C107        C  0.94509022  0.73325359  0.55580482    -0.12800
C108        C  0.94068306  0.76372158  0.57821626     0.00800
C109        C  0.91487404  0.76157477  0.60657027    -0.11400
C110        C  0.89000938  0.73249874  0.60969365     0.03300
C111        C  0.89209266  0.70425707  0.58513770    -0.10800
H112        H  0.96724918  0.73374865  0.53615052     0.08900
H113        H  0.91285327  0.78352677  0.62549428     0.06400
H114        H  0.87135187  0.68299125  0.58725073     0.06300
C115        C  0.78704113  0.57608051  0.93989569     0.03300
C116        C  0.78205805  0.60622350  0.91794103    -0.12800
C117        C  0.75196674  0.60817906  0.89493939     0.00800
C118        C  0.72307481  0.58236205  0.89850406    -0.11400
C119        C  0.72577609  0.55239889  0.92158199     0.03300
C120        C  0.75907029  0.54908272  0.94094376    -0.10800
H121        H  0.80214617  0.62817392  0.91822961     0.08900
H122        H  0.69846435  0.58624610  0.88326422     0.06400
H123        H  0.76378089  0.52533574  0.95666114     0.06300
C124        C  0.29622694  0.24827923  0.74309207     0.03300
C125        C  0.26661413  0.24656437  0.71948820    -0.12800
C126        C  0.23944555  0.27376079  0.71872778     0.00800
C127        C  0.23961437  0.30133265  0.74418244    -0.11400
C128        C  0.26771700  0.30242435  0.76941076     0.03300
C129        C  0.29677374  0.27691015  0.76763206    -0.10800
H130        H  0.26388507  0.22363795  0.70194784     0.08900
H131        H  0.21759103  0.32143253  0.74473386     0.06400
H132        H  0.31947583  0.27921990  0.78591417     0.06300
C133        C  0.28948376  0.45020300  0.92059254     0.03300
C134        C  0.28772725  0.42934482  0.88965509    -0.12800
C135        C  0.25914480  0.40415541  0.88513195     0.00800
C136        C  0.23037437  0.40163455  0.91039097    -0.11400
C137        C  0.22809501  0.42608228  0.93894893     0.03300
C138        C  0.25863129  0.44976933  0.94441006    -0.10800
H139        H  0.30988168  0.43105429  0.86986881     0.08900
H140        H  0.20897513  0.38120557  0.90687300     0.06400
H141        H  0.25866280  0.46775497  0.96686784     0.06300
C142        C  0.42413918  0.07535799  0.77975257     0.03300
C143        C  0.39848801  0.10368466  0.77618634    -0.12800
C144        C  0.40128206  0.12815137  0.74814166     0.00800
C145        C  0.42738804  0.12107140  0.72092692    -0.11400
C146        C  0.44882403  0.08902469  0.72033765     0.03300
C147        C  0.44800838  0.06682086  0.75076761    -0.10800
H148        H  0.37684714  0.10717829  0.79618016     0.08900
H149        H  0.43039218  0.14022756  0.69949943     0.06400
H150        H  0.46547132  0.04303859  0.75198595     0.06300
C151        C  0.08011733  0.22427564  0.58487353     0.03300
C152        C  0.10490918  0.23029495  0.61233324    -0.12800
C153        C  0.12768268  0.26088616  0.61239634     0.00800
C154        C  0.12505910  0.28625588  0.58536834    -0.11400
C155        C  0.09654998  0.28415135  0.56024829     0.03300
C156        C  0.07424481  0.25218086  0.55998855    -0.10800
H157        H  0.10823899  0.20992534  0.63257385     0.08900
H158        H  0.14509129  0.30825231  0.58488452     0.06400
H159        H  0.05277300  0.24845759  0.54073109     0.06300
O160        O  0.49276292  0.02818486  0.91544555    -0.80000
O161        O  0.45313269  0.98674688  0.05651190    -0.80000
O162        O  0.44315032  0.94899941  0.99462166    -0.80000
O163        O  0.44771113  0.04578171  0.00795133    -0.79900
O164        O  0.47273332  0.91772368  0.03195953    -0.80100
O165        O  0.48545424  0.07469311  0.97077951    -0.80000
O166        O  0.46838355  0.03889787  0.07956539    -0.80000
O167        O  0.44752630  0.99288121  0.93568322    -0.80000
C168        C  0.46038264  0.01493340  0.91292847     1.09700
C169        C  0.45259903  0.00802951  0.08318579     1.09600
C170        C  0.44756849  0.91886670  0.00943657     1.09700
C171        C  0.45587448  0.07401946  0.99028638     1.09600
O172        O  0.55795690  0.05049890  0.99501053    -0.80000
O173        O  0.54747069  0.94733612  0.01663558    -0.80000
O174        O  0.51892105  0.96312901  0.91928418    -0.80000
O175        O  0.53821901  0.01630515  0.05877175    -0.80000
O176        O  0.52165613  0.96650035  0.08221555    -0.80000
O177        O  0.56207993  0.00231459  0.93655294    -0.80000
O178        O  0.51709630  0.07581464  0.02943889    -0.79900
O179        O  0.51668032  0.91787377  0.97654343    -0.80000
Co180      Co  0.52448302  0.03662301  0.95687168     1.51500
Co181      Co  0.49988156  0.96450748  0.03469082     1.51700
Co182      Co  0.48214590  0.95841311  0.95865427     1.51600
Co183      Co  0.49084391  0.02743005  0.03344230     1.51500
O184        O  0.50427300  0.99790247  0.99065071    -1.41900
C185        C  0.54638608  0.07878371  0.01034354     1.09700
C186        C  0.54293246  0.91895055  0.99894140     1.09700
C187        C  0.55061928  0.97810182  0.91532138     1.09700
C188        C  0.53842839  0.99591803  0.08538907     1.09700
C189        C  0.29004303  0.74226447  0.76769959     0.03300
C190        C  0.26265561  0.71487155  0.76553075    -0.12800
C191        C  0.23934633  0.71237646  0.73632381     0.00800
C192        C  0.24073922  0.73959378  0.71061285    -0.11400
C193        C  0.26657909  0.76802467  0.71303589     0.03300
C194        C  0.29206387  0.76821981  0.74051758    -0.10800
H195        H  0.25820675  0.69590265  0.78682270     0.08900
H196        H  0.22130509  0.73894482  0.68910859     0.06400
H197        H  0.31330566  0.78912827  0.74043473     0.06300
C198        C  0.44990323  0.72959547  0.91240005     0.03300
C199        C  0.42218642  0.72674941  0.88677998    -0.12800
C200        C  0.39650484  0.75495955  0.88153368     0.00800
C201        C  0.39789282  0.78535938  0.90367021    -0.11400
C202        C  0.42745612  0.79025471  0.92680784     0.03300
C203        C  0.45443431  0.76303699  0.92957997    -0.10800
H204        H  0.41975374  0.70205134  0.87172999     0.08900
H205        H  0.37566619  0.80513232  0.90327778     0.06400
H206        H  0.47800563  0.76740996  0.94649811     0.06300
C207        C  0.22280935  0.93161914  0.58574313     0.03300
C208        C  0.22982447  0.90993949  0.61528531    -0.12800
C209        C  0.26211612  0.88875791  0.61648083     0.00800
C210        C  0.29010246  0.89309010  0.59053638    -0.11400
C211        C  0.28471800  0.91531659  0.56088591     0.03300
C212        C  0.24967563  0.93256185  0.55805082    -0.10800
H213        H  0.20956134  0.90806981  0.63671602     0.08900
H214        H  0.31594552  0.87857458  0.59397756     0.06400
H215        H  0.24232248  0.94598610  0.53398576     0.06300
C216        C  0.09448850  0.54691996  0.71087309     0.03300
C217        C  0.07348736  0.54547838  0.74312880    -0.12800
C218        C  0.08262003  0.56862831  0.77156997     0.00800
C219        C  0.10985628  0.59537505  0.76628326    -0.11400
C220        C  0.13143928  0.59647946  0.73552871     0.03300
C221        C  0.12518690  0.57123399  0.70886991    -0.10800
H222        H  0.05025991  0.52694423  0.74637105     0.08900
H223        H  0.11518031  0.61505082  0.78684806     0.06400
H224        H  0.14363131  0.57189609  0.68594777     0.06300
C225        C  0.76209728  0.27505525  0.21471488     0.03300
C226        C  0.73678629  0.24608014  0.21389728    -0.12800
C227        C  0.73836741  0.21837912  0.23889782     0.00800
C228        C  0.76548998  0.21963057  0.26503922    -0.11400
C229        C  0.79106718  0.24857674  0.26607334     0.03300
C230        C  0.78931755  0.27607690  0.24074367    -0.10800
H231        H  0.71543059  0.24529649  0.19405149     0.08900
H232        H  0.76634080  0.19846663  0.28476784     0.06400
H233        H  0.80899511  0.29840996  0.24147847     0.06300
C234        C  0.91975526  0.27998507  0.43386145     0.03300
C235        C  0.93522728  0.24555569  0.44117103    -0.12800
C236        C  0.93232300  0.21664150  0.41709560     0.00800
C237        C  0.91287304  0.22156270  0.38596779    -0.11400
C238        C  0.89628732  0.25473428  0.37868981     0.03300
C239        C  0.90109750  0.28413610  0.40160666    -0.10800
H240        H  0.94859072  0.24044245  0.46595124     0.08900
H241        H  0.90933498  0.19905051  0.36793518     0.06400
H242        H  0.89003751  0.30996172  0.39369905     0.06300
C243        C  0.78378339  0.41833684  0.05933148     0.03300
C244        C  0.78159399  0.38856627  0.08240136    -0.12800
C245        C  0.75470009  0.38703884  0.10941837     0.00800
C246        C  0.72740660  0.41382158  0.11187241    -0.11400
C247        C  0.72464150  0.44078828  0.08595593     0.03300
C248        C  0.75400422  0.44371218  0.06038477    -0.10800
H249        H  0.80219636  0.36720380  0.08081249     0.08900
H250        H  0.70731978  0.41255125  0.13354344     0.06400
H251        H  0.75363313  0.46552315  0.04166924     0.06300
C252        C  0.58091835  0.07549722  0.27994126     0.03300
C253        C  0.56897445  0.05474911  0.25081709    -0.12800
C254        C  0.58662879  0.05934568  0.21735928     0.00800
C255        C  0.61704462  0.08356418  0.21414433    -0.11400
C256        C  0.62740020  0.10537103  0.24241521     0.03300
C257        C  0.60909279  0.10139856  0.27488116    -0.10800
H258        H  0.54616293  0.03561854  0.25408446     0.08900
H259        H  0.63157172  0.08680987  0.18903615     0.06400
H260        H  0.61732910  0.11842526  0.29673399     0.06300
O261        O  0.95586218  0.55671951  0.99389945    -0.80000
O262        O  0.05771314  0.55176536  0.00893878    -0.80000
O263        O  0.99386249  0.53890098  0.05957523    -0.80000
O264        O  0.03822312  0.50989751  0.91429848    -0.79900
O265        O  0.04941533  0.52700896  0.07922103    -0.80100
O266        O  0.00154375  0.55467938  0.93250225    -0.80000
O267        O  0.08422804  0.51499739  0.96949701    -0.80000
O268        O  0.92829388  0.52092270  0.03081717    -0.80000
C269        C  0.92651519  0.54841943  0.01084112     1.09700
C270        C  0.08504388  0.54380945  0.98856511     1.09600
C271        C  0.01727420  0.54086826  0.08470139     1.09700
C272        C  0.02501649  0.54134747  0.91043243     1.09600
O273        O  0.97044782  0.48645067  0.91672762    -0.80000
O274        O  0.01923606  0.46287364  0.05869135    -0.80000
O275        O  0.95444827  0.45045638  0.01148220    -0.80000
O276        O  0.05542835  0.44443660  0.99378793    -0.80000
O277        O  0.08410356  0.48189178  0.02714753    -0.80000
O278        O  0.92491712  0.48584040  0.97443445    -0.80000
O279        O  0.00778719  0.44306263  0.93551437    -0.79900
O280        O  0.96403313  0.47453288  0.08146830    -0.80000
Co281      Co  0.96545215  0.52100974  0.95657890     1.51500
Co282      Co  0.03535094  0.50949498  0.03269288     1.51700
Co283      Co  0.97689540  0.49257841  0.03425692     1.51600
Co284      Co  0.04428170  0.47820433  0.95559842     1.51500
O285        O  0.00551328  0.50075775  0.98795128    -1.41900
C286        C  0.98379473  0.45478893  0.91398563     1.09700
C287        C  0.99591966  0.45968040  0.08463293     1.09700
C288        C  0.92544945  0.45778545  0.99429054     1.09700
C289        C  0.08525234  0.45345534  0.00843542     1.09700
C290        C  0.22364625  0.04878115  0.42171411     0.03300
C291        C  0.25324618  0.05023830  0.44583209    -0.12800
C292        C  0.28408915  0.07364395  0.43998132     0.00800
C293        C  0.28234224  0.09878032  0.41211018    -0.11400
C294        C  0.25515545  0.09580341  0.38598754     0.03300
C295        C  0.22752094  0.06886960  0.39028169    -0.10800
H296        H  0.25243043  0.03322257  0.46894586     0.08900
H297        H  0.30274779  0.12037358  0.41076173     0.06400
H298        H  0.20821425  0.06406201  0.36927055     0.06300
C299        C  0.24802132  0.19840986  0.26848575     0.03300
C300        C  0.21952738  0.22484142  0.26831444    -0.12800
C301        C  0.21780825  0.25045813  0.24107589     0.00800
C302        C  0.24506289  0.25013229  0.21424886    -0.11400
C303        C  0.27385401  0.22467262  0.21398428     0.03300
C304        C  0.27537059  0.19885853  0.24111900    -0.10800
H305        H  0.19948907  0.22651318  0.28996901     0.08900
H306        H  0.24425337  0.27043942  0.19367489     0.06400
H307        H  0.29753471  0.17893225  0.24054303     0.06300
C308        C  0.06258219  0.40565297  0.21412382     0.03300
C309        C  0.06211939  0.42621072  0.24588956    -0.12800
C310        C  0.08517196  0.41643282  0.27436312     0.00800
C311        C  0.10974474  0.38728855  0.26988476    -0.11400
C312        C  0.10960866  0.36596196  0.23968857     0.03300
C313        C  0.08546201  0.37441088  0.21239277    -0.10800
H314        H  0.04418351  0.44959328  0.24844526     0.08900
H315        H  0.12901739  0.38050046  0.29052460     0.06400
H316        H  0.08565902  0.35718275  0.18927248     0.06300
C317        C  0.43649908  0.27333622  0.07304215     0.03300
C318        C  0.41010233  0.27053711  0.10102102    -0.12800
C319        C  0.38549535  0.24112167  0.10320534     0.00800
C320        C  0.38828032  0.21353960  0.07826004    -0.11400
C321        C  0.41837225  0.21213733  0.05404405     0.03300
C322        C  0.44168350  0.24304791  0.05039771    -0.10800
H323        H  0.40775406  0.29184888  0.12058037     0.08900
H324        H  0.36814017  0.19157855  0.07945718     0.06400
H325        H  0.46357676  0.24349026  0.03031953     0.06300
C326        C  0.76117083  0.27906909  0.74782753     0.03300
C327        C  0.73494102  0.27755837  0.77572887    -0.12800
C328        C  0.70983896  0.24843431  0.77854334     0.00800
C329        C  0.71222945  0.21976927  0.75420509    -0.11400
C330        C  0.73861597  0.22057356  0.72610835     0.03300
C331        C  0.76190869  0.25117497  0.72262883    -0.10800
H332        H  0.73424569  0.29875718  0.79550707     0.08900
H333        H  0.69387226  0.19663555  0.75776281     0.06400
H334        H  0.78088596  0.25362085  0.70022851     0.06300
C335        C  0.91706512  0.43344550  0.71709306     0.03300
C336        C  0.93779049  0.43643939  0.74855603    -0.12800
C337        C  0.92760568  0.41577139  0.77879540     0.00800
C338        C  0.89816700  0.39078575  0.77643089    -0.11400
C339        C  0.87708171  0.38815406  0.74614106     0.03300
C340        C  0.88572280  0.41006730  0.71718310    -0.10800
H341        H  0.96140182  0.45466400  0.74971470     0.08900
H342        H  0.89096431  0.37360933  0.79871949     0.06400
H343        H  0.86829818  0.40797138  0.69427042     0.06300
C344        C  0.56855171  0.21804692  0.94149260     0.03300
C345        C  0.54374348  0.24777026  0.94511755    -0.12800
C346        C  0.54655020  0.27779422  0.92195373     0.00800
C347        C  0.57222990  0.27580052  0.89336801    -0.11400
C348        C  0.59867208  0.24818212  0.89112816     0.03300
C349        C  0.59757529  0.22041390  0.91592283    -0.10800
H350        H  0.52272558  0.24776138  0.96581108     0.08900
H351        H  0.57318338  0.29690265  0.87357738     0.06400
H352        H  0.61889846  0.19972438  0.91412861     0.06300
C353        C  0.71779745  0.07958976  0.56712449     0.03300
C354        C  0.71877025  0.10679142  0.59302054    -0.12800
C355        C  0.74599723  0.10699705  0.61896254     0.00800
C356        C  0.77505724  0.08157932  0.61657678    -0.11400
C357        C  0.77851483  0.05737336  0.58772443     0.03300
C358        C  0.74890130  0.05621290  0.56339772    -0.10800
H359        H  0.69749484  0.12756316  0.59346237     0.08900
H360        H  0.79525259  0.08101688  0.63737930     0.06400
H361        H  0.74970290  0.03746583  0.54158530     0.06300
C362        C  0.75101954  0.77982116  0.21472205     0.03300
C363        C  0.74748406  0.80422827  0.24289968    -0.12800
C364        C  0.77216057  0.80290956  0.27108605     0.00800
C365        C  0.80118891  0.77725231  0.27054954    -0.11400
C366        C  0.80483179  0.75263652  0.24245442     0.03300
C367        C  0.77977236  0.75414151  0.21462217    -0.10800
H368        H  0.72456075  0.82337767  0.24352703     0.08900
H369        H  0.82004894  0.77558865  0.29245713     0.06400
H370        H  0.78161791  0.73414187  0.19371449     0.06300
C371        C  0.72248304  0.91501963  0.44765750     0.03300
C372        C  0.72041893  0.89679416  0.41492570    -0.12800
C373        C  0.75050397  0.89742293  0.39075582     0.00800
C374        C  0.78184601  0.91842870  0.39771061    -0.11400
C375        C  0.78573393  0.93565481  0.43026821     0.03300
C376        C  0.75628409  0.93326429  0.45536630    -0.10800
H377        H  0.69538395  0.88286687  0.40713060     0.08900
H378        H  0.80388834  0.92023560  0.37785058     0.06400
H379        H  0.76012484  0.94546438  0.48092703     0.06300
C380        C  0.95133218  0.59075680  0.21823230     0.03300
C381        C  0.95221067  0.56978388  0.24941954    -0.12800
C382        C  0.92996762  0.57947436  0.27932165     0.00800
C383        C  0.90581099  0.60924641  0.27669902    -0.11400
C384        C  0.90633623  0.63143899  0.24694537     0.03300
C385        C  0.92994594  0.62279323  0.21837857    -0.10800
H386        H  0.96971077  0.54593039  0.25020143     0.08900
H387        H  0.88651176  0.61562438  0.29814290     0.06400
H388        H  0.93015328  0.64021052  0.19543974     0.06300
C389        C  0.59723856  0.78851568  0.06558194     0.03300
C390        C  0.57771023  0.75527510  0.06428309    -0.12800
C391        C  0.58755564  0.72637236  0.08668245     0.00800
C392        C  0.61639227  0.73167669  0.11072235    -0.11400
C393        C  0.63676510  0.76398462  0.11114170     0.03300
C394        C  0.62811743  0.79159773  0.08770014    -0.10800
H395        H  0.55503915  0.75210693  0.04609995     0.08900
H396        H  0.62345898  0.71035322  0.12900387     0.06400
H397        H  0.64438724  0.81639907  0.08808121     0.06300
C398        C  0.21063550  0.74715033  0.27348864     0.03300
C399        C  0.23789675  0.77463980  0.27196524    -0.12800
C400        C  0.26591836  0.77443622  0.24560632     0.00800
C401        C  0.26622948  0.74690788  0.22002172    -0.11400
C402        C  0.23866741  0.71963615  0.22063926     0.03300
C403        C  0.21115245  0.71980895  0.24760138    -0.10800
H404        H  0.23746919  0.79619020  0.29139123     0.08900
H405        H  0.28788566  0.74674317  0.19965018     0.06400
H406        H  0.19010987  0.69863276  0.24841346     0.06300
C407        C  0.43218083  0.91653287  0.27465034     0.03300
C408        C  0.40196621  0.89194445  0.27554014    -0.12800
C409        C  0.37930333  0.88702238  0.24611954     0.00800
C410        C  0.38602634  0.90815464  0.21599892    -0.11400
C411        C  0.41692056  0.93177654  0.21351092     0.03300
C412        C  0.44044069  0.93484630  0.24268735    -0.10800
H413        H  0.39508568  0.87728092  0.29948649     0.08900
H414        H  0.36733832  0.90555541  0.19414283     0.06400
H415        H  0.46523728  0.95155966  0.24037896     0.06300
C416        C  0.04795271  0.77068781  0.42046352     0.03300
C417        C  0.07178115  0.76970577  0.39030863    -0.12800
C418        C  0.09799221  0.74204935  0.38542618     0.00800
C419        C  0.09816254  0.71297449  0.40893051    -0.11400
C420        C  0.07094273  0.70986502  0.43607023     0.03300
C421        C  0.04733101  0.73992868  0.44291598    -0.10800
H422        H  0.07154874  0.79143990  0.37121747     0.08900
H423        H  0.11918128  0.69219010  0.40532215     0.06400
H424        H  0.02913243  0.73935460  0.46586272     0.06300
C425        C  0.28096506  0.56653396  0.07876961     0.03300
C426        C  0.25527809  0.56785542  0.05121737    -0.12800
C427        C  0.22025017  0.58521074  0.05540922     0.00800
C428        C  0.21446368  0.60642737  0.08614146    -0.11400
C429        C  0.24170507  0.60877243  0.11217330     0.03300
C430        C  0.27374289  0.58725919  0.10923241    -0.10800
H431        H  0.26349559  0.55588768  0.02635555     0.08900
H432        H  0.18874756  0.62113453  0.09061538     0.06400
H433        H  0.29382700  0.58798877  0.13016327     0.06300
O434        O  0.98829498  0.93074104  0.54759980    -0.80000
O435        O  0.03906390  0.07843219  0.52169214    -0.80000
O436        O  0.05359864  0.97939836  0.55917324    -0.80000
O437        O  0.95080654  0.00229840  0.56687389    -0.79900
O438        O  0.08338631  0.01869349  0.52455668    -0.80100
O439        O  0.92373684  0.96547539  0.53161828    -0.80000
O440        O  0.99989368  0.06165396  0.56459457    -0.80000
O441        O  0.04305588  0.90825730  0.53366649    -0.80000
C442        C  0.01067403  0.90349311  0.54731095     1.09700
C443        C  0.02470439  0.08304399  0.55213521     1.09600
C444        C  0.08262928  0.99784659  0.55163531     1.09700
C445        C  0.92145222  0.98584894  0.55854224     1.09600
O446        O  0.95310267  0.98504848  0.46325268    -0.80000
O447        O  0.05370075  0.99692560  0.45593562    -0.80000
O448        O  0.01278252  0.93167104  0.47297016    -0.80000
O449        O  0.97140820  0.08005913  0.49818922    -0.80000
O450        O  0.00862392  0.05768958  0.45631555    -0.80000
O451        O  0.95593359  0.91296195  0.48593058    -0.80000
O452        O  0.92308901  0.02345850  0.49789425    -0.79900
O453        O  0.08021430  0.96018114  0.49092525    -0.80000
Co454      Co  0.97268590  0.95937679  0.50377517     1.51500
Co455      Co  0.04392294  0.03587931  0.48994102     1.51700
Co456      Co  0.03069080  0.95694938  0.51825360     1.51600
Co457      Co  0.96366761  0.03948997  0.53179380     1.51500
O458        O  0.00325073  0.00490875  0.51206490    -1.41900
C459        C  0.92396929  0.00296316  0.47067559     1.09700
C460        C  0.08267185  0.97986152  0.46371347     1.09700
C461        C  0.98700298  0.90753502  0.47000252     1.09700
C462        C  0.98499374  0.08094295  0.46716912     1.09700
C463        C  0.02744373  0.80538974  0.42946397    -0.05300
C464        C  0.04390677  0.83860679  0.41925581    -0.32700
C465        C  0.02842149  0.87187981  0.42901541     0.36500
C466        C  0.99623828  0.87331447  0.45092152    -0.05700
C467        C  0.97816840  0.84058083  0.45975855    -0.32600
C468        C  0.99323003  0.80684616  0.44898907     0.36400
H469        H  0.07026760  0.83942236  0.40486719     0.16800
O470        O  0.04581306  0.90308163  0.41763598    -0.60100
H471        H  0.95330648  0.84094243  0.47651853     0.16800
O472        O  0.97392101  0.77576048  0.45725721    -0.60200
H473        H  0.97409419  0.77411529  0.48333476     0.43800
H474        H  0.06898182  0.90498076  0.43144291     0.43800
C475        C  0.23840806  0.69107072  0.19299687    -0.05300
C476        C  0.23970269  0.65427830  0.20244574    -0.32700
C477        C  0.24039730  0.62701160  0.17653939     0.36500
C478        C  0.23856607  0.63634495  0.14063565    -0.05700
C479        C  0.23642913  0.67307407  0.13132499    -0.32600
C480        C  0.23660854  0.70028937  0.15708723     0.36400
H481        H  0.24094028  0.64671703  0.22996148     0.16800
O482        O  0.24203031  0.59134684  0.18652401    -0.60100
H483        H  0.23551458  0.68073826  0.10381233     0.16800
O484        O  0.23508611  0.73588514  0.14689246    -0.60200
H485        H  0.20812530  0.74114743  0.14435245     0.43800
H486        H  0.26828606  0.58732541  0.19336136     0.43800
C487        C  0.18176473  0.74679169  0.30224308    -0.05300
C488        C  0.14373784  0.74365741  0.29410482    -0.32700
C489        C  0.11612919  0.74277787  0.32089040     0.36500
C490        C  0.12638477  0.74414558  0.35647208    -0.05700
C491        C  0.16431936  0.74711900  0.36464408    -0.32600
C492        C  0.19187504  0.74887267  0.33791094     0.36400
H493        H  0.13541102  0.74206829  0.26686348     0.16800
O494        O  0.07932968  0.73909401  0.31212330    -0.60100
H495        H  0.17259473  0.74814484  0.39192838     0.16800
O496        O  0.22875638  0.75079098  0.34692859    -0.60200
H497        H  0.23273291  0.77614898  0.35474034     0.43800
H498        H  0.07093748  0.76391259  0.30626249     0.43800
C499        C  0.29502592  0.80300914  0.24516095    -0.05300
C500        C  0.28596859  0.83834232  0.23490909    -0.32700
C501        C  0.31296989  0.86602767  0.23501277     0.36500
C502        C  0.34953846  0.85868392  0.24630601    -0.05700
C503        C  0.35830779  0.82325211  0.25688013    -0.32600
C504        C  0.33150018  0.79551189  0.25605551     0.36400
H505        H  0.25784091  0.84446045  0.22676846     0.16800
O506        O  0.30291896  0.90047675  0.22556956    -0.60100
H507        H  0.38626939  0.81691929  0.26534313     0.16800
O508        O  0.34085621  0.76136704  0.26695860    -0.60200
H509        H  0.35232771  0.74952388  0.24593092     0.43800
H510        H  0.29900403  0.89944487  0.19978331     0.43800
C511        C  0.82115721  0.95517410  0.43794081    -0.05300
C512        C  0.82045484  0.98883696  0.45542558    -0.32700
C513        C  0.85374542  0.00680294  0.46385054     0.36500
C514        C  0.88859008  0.99144330  0.45421566    -0.05700
C515        C  0.88896103  0.95891446  0.43489824    -0.32600
C516        C  0.85602506  0.94038798  0.42762881     0.36400
H517        H  0.79401306  0.00096564  0.46318363     0.16800
O518        O  0.85178448  0.03824024  0.48311157    -0.60100
H519        H  0.91511046  0.94586181  0.42772905     0.16800
O520        O  0.85852365  0.90615570  0.41350778    -0.60200
H521        H  0.86916770  0.90935407  0.38936615     0.43800
H522        H  0.85454012  0.05801516  0.46559634     0.43800
C523        C  0.72199800  0.77816428  0.18767515    -0.05300
C524        C  0.68454878  0.77364044  0.19842810    -0.32700
C525        C  0.65664481  0.76908449  0.17362163     0.36500
C526        C  0.66592622  0.76957716  0.13746245    -0.05700
C527        C  0.70312606  0.77544016  0.12656002    -0.32600
C528        C  0.73124112  0.77931222  0.15145697     0.36400
H529        H  0.67703058  0.77274619  0.22620918     0.16800
O530        O  0.62019734  0.76507094  0.18486249    -0.60100
H531        H  0.71042733  0.77633435  0.09873556     0.16800
O532        O  0.76744432  0.78516037  0.14028019    -0.60200
H533        H  0.77663667  0.76122900  0.13200634     0.43800
H534        H  0.61777611  0.73932771  0.19203132     0.43800
C535        C  0.83154940  0.72231291  0.24399571    -0.05300
C536        C  0.81757656  0.68705883  0.24837744    -0.32700
C537        C  0.84172400  0.65742673  0.24920674     0.36500
C538        C  0.88058041  0.66270410  0.24531664    -0.05700
C539        C  0.89462763  0.69799785  0.24053397    -0.32600
C540        C  0.87034402  0.72781198  0.24027845     0.36400
H541        H  0.78773345  0.68254621  0.25121327     0.16800
O542        O  0.82704845  0.62332006  0.25364678    -0.60100
H543        H  0.92445408  0.70243247  0.23750757     0.16800
O544        O  0.88459635  0.76200182  0.23534388    -0.60200
H545        H  0.89000340  0.77106349  0.25932245     0.43800
H546        H  0.82477721  0.61337347  0.22949961     0.43800
C547        C  0.76572797  0.82699322  0.30185405    -0.05300
C548        C  0.76167224  0.86446550  0.29671743    -0.32700
C549        C  0.75517640  0.88771755  0.32537205     0.36500
C550        C  0.75159895  0.87346039  0.35960531    -0.05700
C551        C  0.75460742  0.83595578  0.36468547    -0.32600
C552        C  0.76172422  0.81275418  0.33616052     0.36400
H553        H  0.76426962  0.87579406  0.27046660     0.16800
O554        O  0.75214991  0.92430162  0.31976666    -0.60100
H555        H  0.75262355  0.82477834  0.39104150     0.16800
O556        O  0.76473022  0.77623504  0.34211400    -0.60200
H557        H  0.73943018  0.76624213  0.33806649     0.43800
H558        H  0.77817062  0.93315910  0.31646993     0.43800
C559        C  0.81410677  0.03559952  0.58287858    -0.05300
C560        C  0.84782475  0.05028501  0.59523094    -0.32700
C561        C  0.88205169  0.03258708  0.59054645     0.36500
C562        C  0.88430997  0.99972138  0.57149387    -0.05700
C563        C  0.85076618  0.98413871  0.55989008    -0.32600
C564        C  0.81595118  0.00135391  0.56584837     0.36400
H565        H  0.84842366  0.07665339  0.60769571     0.16800
O566        O  0.91342426  0.04873537  0.60373343    -0.60100
H567        H  0.85152630  0.95885647  0.54534147     0.16800
O568        O  0.78405388  0.98382065  0.55580539    -0.60200
H569        H  0.78512890  0.98348925  0.52967772     0.43800
H570        H  0.92018318  0.06820804  0.58675944     0.43800
C571        C  0.74136562  0.19003491  0.70009393    -0.05300
C572        C  0.70884873  0.17154861  0.69013496    -0.32700
C573        C  0.71013754  0.14369751  0.66499008     0.36500
C574        C  0.74428937  0.13432314  0.64812087    -0.05700
C575        C  0.77704588  0.15183815  0.65888841    -0.32600
C576        C  0.77595146  0.17899766  0.68484614     0.36400
H577        H  0.68192390  0.17887714  0.70147828     0.16800
O578        O  0.67805614  0.12469539  0.65824765    -0.60100
H579        H  0.80376552  0.14476031  0.64690135     0.16800
O580        O  0.80905140  0.19323594  0.69630269    -0.60200
H581        H  0.82005240  0.20652164  0.67587084     0.43800
H582        H  0.66055550  0.14254894  0.64822534     0.43800
C583        C  0.68132560  0.24783999  0.80728371    -0.05300
C584        C  0.69246189  0.24764949  0.84249985    -0.32700
C585        C  0.66582109  0.24737156  0.87006395     0.36500
C586        C  0.62743585  0.24814268  0.86253479    -0.05700
C587        C  0.61635487  0.24875148  0.82729555    -0.32600
C588        C  0.64297830  0.24845875  0.79977149     0.36400
H589        H  0.72190380  0.24751085  0.84860293     0.16800
O590        O  0.67750043  0.24781542  0.90426406    -0.60100
H591        H  0.58693255  0.24924347  0.82112880     0.16800
O592        O  0.63129971  0.24923730  0.76559851    -0.60200
H593        H  0.62891072  0.27532165  0.75980891     0.43800
H594        H  0.68572218  0.22270164  0.90912760     0.43800
C595        C  0.84700050  0.36089727  0.74456145    -0.05300
C596        C  0.80948935  0.37129575  0.74844270    -0.32700
C597        C  0.78098616  0.34506195  0.74960615     0.36500
C598        C  0.79002983  0.30799567  0.74622040    -0.05700
C599        C  0.82765741  0.29796055  0.74168978    -0.32600
C600        C  0.85598309  0.32403635  0.74112137     0.36400
H601        H  0.80239571  0.39970499  0.75116174     0.16800
O602        O  0.74443824  0.35589790  0.75284471    -0.60100
H603        H  0.83522197  0.26963385  0.73928452     0.16800
O604        O  0.89246176  0.31331895  0.73685020    -0.60200
H605        H  0.90096676  0.30762804  0.76091544     0.43800
H606        H  0.74121531  0.36402737  0.77763610     0.43800
C607        C  0.35715280  0.23799097  0.13193809    -0.05300
C608        C  0.31958529  0.23260397  0.12348333    -0.32700
C609        C  0.29242650  0.22721429  0.14995048     0.36500
C610        C  0.30272694  0.22661936  0.18558266    -0.05700
C611        C  0.34042818  0.23127190  0.19405591    -0.32600
C612        C  0.36756569  0.23716854  0.16751044     0.36400
H613        H  0.31128621  0.23254325  0.09618639     0.16800
O614        O  0.25599137  0.22140115  0.14077788    -0.60100
H615        H  0.34871182  0.23107894  0.22134903     0.16800
O616        O  0.40436217  0.24053631  0.17641361    -0.60200
H617        H  0.40724484  0.26602504  0.18424839     0.43800
H618        H  0.24678322  0.24519460  0.13254680     0.43800
C619        C  0.18920846  0.27939123  0.24102546    -0.05300
C620        C  0.20101213  0.31553704  0.23753843    -0.32700
C621        C  0.17512084  0.34362963  0.23577076     0.36500
C622        C  0.13663839  0.33591102  0.23696139    -0.05700
C623        C  0.12456006  0.29980397  0.23997743    -0.32600
C624        C  0.15063560  0.27154687  0.24225255     0.36400
H625        H  0.23055554  0.32205526  0.23645781     0.16800
O626        O  0.18760797  0.37869039  0.23259332    -0.60100
H627        H  0.09495405  0.29365100  0.24141412     0.16800
O628        O  0.13826581  0.23639167  0.24442711    -0.60200
H629        H  0.13115126  0.23274918  0.26955880     0.43800
H630        H  0.19450993  0.38613795  0.25672630     0.43800
C631        C  0.11952937  0.99219751  0.44868799    -0.05300
C632        C  0.11991262  0.02299720  0.42700631    -0.32700
C633        C  0.15307591  0.04123368  0.41816928     0.36500
C634        C  0.18799173  0.02798748  0.42947710    -0.05700
C635        C  0.18785053  0.99599491  0.44990636    -0.32600
C636        C  0.15414411  0.97847600  0.45983347     0.36400
H637        H  0.09391800  0.03490416  0.41864551     0.16800
O638        O  0.15033874  0.07406964  0.40147027    -0.60100
H639        H  0.21384902  0.98475909  0.45893538     0.16800
O640        O  0.15543321  0.94908902  0.48181983    -0.60200
H641        H  0.15377620  0.92766149  0.46613448     0.43800
H642        H  0.14144616  0.06848731  0.37746214     0.43800
C643        C  0.25425781  0.12136701  0.35501327    -0.05300
C644        C  0.21966135  0.13084757  0.34050915    -0.32700
C645        C  0.21734306  0.15469166  0.31189739     0.36500
C646        C  0.24986538  0.17124425  0.29771027    -0.05700
C647        C  0.28451734  0.16170052  0.31181351    -0.32600
C648        C  0.28701622  0.13659388  0.33942868     0.36400
H649        H  0.19380724  0.12003025  0.35141126     0.16800
O650        O  0.18325238  0.16019172  0.29687640    -0.60100
H651        H  0.31004873  0.17376424  0.30141236     0.16800
O652        O  0.32184976  0.12683515  0.35028103    -0.60200
H653        H  0.32835872  0.10488699  0.33638242     0.43800
H654        H  0.16801402  0.17343651  0.31478734     0.43800
C655        C  0.97195459  0.43420835  0.88276972    -0.05300
C656        C  0.99676769  0.42999202  0.85381399    -0.32700
C657        C  0.98322773  0.42363180  0.81964485     0.36500
C658        C  0.94437357  0.42144324  0.81420826    -0.05700
C659        C  0.92003866  0.42407200  0.84371141    -0.32600
C660        C  0.93345215  0.43013260  0.87746819     0.36400
H661        H  0.02645805  0.43412939  0.85724111     0.16800
O662        O  0.00806070  0.41947637  0.79195060    -0.60100
H663        H  0.89005885  0.42283012  0.84045196     0.16800
O664        O  0.90835730  0.43524963  0.90481324    -0.60200
H665        H  0.90623309  0.41135774  0.91661248     0.43800
H666        H  0.01777242  0.44416367  0.78684896     0.43800
C667        C  0.00397239  0.55664124  0.11910812    -0.05300
C668        C  0.96718746  0.56998766  0.12084574    -0.32700
C669        C  0.95008715  0.58019825  0.15270043     0.36500
C670        C  0.96986794  0.57855220  0.18442217    -0.05700
C671        C  0.00678857  0.56520355  0.18311780    -0.32600
C672        C  0.02369867  0.55394489  0.15088572     0.36400
H673        H  0.95050287  0.57128417  0.09738666     0.16800
O674        O  0.91288643  0.58927506  0.15283626    -0.60100
H675        H  0.02249613  0.56329541  0.20712598     0.16800
O676        O  0.05905563  0.53977371  0.15097695    -0.60200
H677        H  0.05555370  0.51358498  0.15595866     0.43800
H678        H  0.91145915  0.61249470  0.13979714     0.43800
C679        C  0.04235445  0.41747519  0.18147022    -0.05300
C680        C  0.05989162  0.41190533  0.14843497    -0.32700
C681        C  0.04355420  0.42281723  0.11704963     0.36500
C682        C  0.00883509  0.44113441  0.11743446    -0.05700
C683        C  0.99050013  0.44614592  0.15027606    -0.32600
C684        C  0.00666841  0.43412852  0.18195549     0.36400
H685        H  0.08737632  0.39979857  0.14658412     0.16800
O686        O  0.06236878  0.41560384  0.08596310    -0.60100
H687        H  0.96405070  0.46031770  0.15157579     0.16800
O688        O  0.98723170  0.43893352  0.21306748    -0.60200
H689        H  0.97276016  0.41622555  0.21656376     0.43800
H690        H  0.08375105  0.43277388  0.08519468     0.43800
C691        C  0.18906667  0.57965262  0.02944902    -0.05300
C692        C  0.15877538  0.60422170  0.02837855    -0.32700
C693        C  0.12500306  0.59480345  0.01231393     0.36500
C694        C  0.12175862  0.56149740  0.99450337    -0.05700
C695        C  0.15377268  0.54004381  0.99035744    -0.32600
C696        C  0.18648416  0.54792289  0.00836150     0.36400
H697        H  0.16006243  0.63010440  0.04167116     0.16800
O698        O  0.09497427  0.61771891  0.01531249    -0.60100
H699        H  0.15236247  0.51446492  0.97640465     0.16800
O700        O  0.21370727  0.52195443  0.00799880    -0.60200
H701        H  0.22586909  0.52370902  0.98434842     0.43800
H702        H  0.08513366  0.61449444  0.03972699     0.43800
C703        C  0.88954681  0.43970082  0.00448650    -0.05300
C704        C  0.85584878  0.45040002  0.98906161    -0.32700
C705        C  0.82094498  0.44211842  0.00506578     0.36500
C706        C  0.81924116  0.42377466  0.03777355    -0.05700
C707        C  0.85317609  0.41136254  0.05163947    -0.32600
C708        C  0.88748039  0.41782379  0.03486306     0.36400
H709        H  0.85648094  0.46668973  0.96533690     0.16800
O710        O  0.78895683  0.45188587  0.98831660    -0.60100
H711        H  0.85394550  0.39790298  0.07688595     0.16800
O712        O  0.91906671  0.40514103  0.05053526    -0.60200
H713        H  0.92517075  0.38223543  0.03800572     0.43800
H714        H  0.78821144  0.47869049  0.98975461     0.43800
C715        C  0.94718257  0.18031138  0.42542115    -0.05300
C716        C  0.98512412  0.17601341  0.43307136    -0.32700
C717        C  0.99897549  0.14210332  0.44295589     0.36500
C718        C  0.97465477  0.11214655  0.44569354    -0.05700
C719        C  0.93707307  0.11619005  0.43697902    -0.32600
C720        C  0.92333666  0.14983847  0.42647112     0.36400
H721        H  0.00377002  0.19919874  0.43227666     0.16800
O722        O  0.03540153  0.13929839  0.45313972    -0.60100
H723        H  0.91783741  0.09365234  0.44032947     0.16800
O724        O  0.88588942  0.15340379  0.42028817    -0.60200
H725        H  0.88213611  0.14241157  0.39675424     0.43800
H726        H  0.04916128  0.12979455  0.43217937     0.43800
C727        C  0.71004856  0.18938940  0.23861559    -0.05300
C728        C  0.72012853  0.15388000  0.22925448    -0.32700
C729        C  0.69308832  0.12631408  0.22861576     0.36500
C730        C  0.65580680  0.13416531  0.23828685    -0.05700
C731        C  0.64580832  0.16984989  0.24701070    -0.32600
C732        C  0.67254455  0.19741305  0.24691370     0.36400
H733        H  0.74893824  0.14760192  0.22246414     0.16800
O734        O  0.70363023  0.09157150  0.22035494    -0.60100
H735        H  0.61717214  0.17622759  0.25443492     0.16800
O736        O  0.66212617  0.23186647  0.25644455    -0.60200
H737        H  0.65234645  0.24291684  0.23470391     0.43800
H738        H  0.70434590  0.09061177  0.19423900     0.43800
C739        C  0.76010176  0.30399936  0.18805216    -0.05300
C740        C  0.75889606  0.29458164  0.15226393    -0.32700
C741        C  0.75708870  0.32132394  0.12634745     0.36500
C742        C  0.75604977  0.35811174  0.13615728    -0.05700
C743        C  0.75661826  0.36752653  0.17196700    -0.32600
C744        C  0.75879503  0.34079691  0.19787853     0.36400
H745        H  0.75961863  0.26635512  0.14435447     0.16800
O746        O  0.75477723  0.31127620  0.09163620    -0.60100
H747        H  0.75568097  0.39575414  0.17985677     0.16800
O748        O  0.75790704  0.35074839  0.23273302    -0.60200
H749        H  0.78281142  0.36147957  0.23717954     0.43800
H750        H  0.78006985  0.30248628  0.08482310     0.43800
C751        C  0.81852068  0.25117766  0.29453333    -0.05300
C752        C  0.80582106  0.25173276  0.32971446    -0.32700
C753        C  0.83109648  0.25478481  0.35715150     0.36500
C754        C  0.86969716  0.25666385  0.34964374    -0.05700
C755        C  0.88254612  0.25603799  0.31453065    -0.32600
C756        C  0.85714975  0.25385505  0.28695874     0.36400
H757        H  0.77618669  0.24987940  0.33589056     0.16800
O758        O  0.81799476  0.25404844  0.39134922    -0.60100
H759        H  0.91226996  0.25671109  0.30856709     0.16800
O760        O  0.87033769  0.25246578  0.25280486    -0.60200
H761        H  0.87691948  0.27783554  0.24664575     0.43800
H762        H  0.81458415  0.27982724  0.39806117     0.43800
C763        C  0.06614639  0.56499208  0.80780826    -0.05300
C764        C  0.02730824  0.56335672  0.81393926    -0.32700
C765        C  0.01252676  0.56019274  0.84852246     0.36500
C766        C  0.03662941  0.55945652  0.87748865    -0.05700
C767        C  0.07516559  0.56246304  0.87126145    -0.32600
C768        C  0.08999940  0.56468886  0.83705466     0.36400
H769        H  0.00851529  0.56368638  0.79193331     0.16800
O770        O  0.97479272  0.55534317  0.85358197    -0.60100
H771        H  0.09418647  0.55979950  0.89298633     0.16800
O772        O  0.12811259  0.56327328  0.83227511    -0.60200
H773        H  0.13775043  0.58657698  0.84152495     0.43800
H774        H  0.97046510  0.52899122  0.85030373     0.43800
C775        C  0.18681922  0.95186790  0.58254451    -0.05300
C776        C  0.18647599  0.98596510  0.56585495    -0.32700
C777        C  0.15277480  0.00336377  0.55826150     0.36500
C778        C  0.11832091  0.98726442  0.56823293    -0.05700
C779        C  0.11891924  0.95490300  0.58776083    -0.32600
C780        C  0.15234212  0.93674715  0.59394416     0.36400
H781        H  0.21245547  0.99861101  0.55730633     0.16800
O782        O  0.15397114  0.03468167  0.53886016    -0.60100
H783        H  0.09307179  0.94149825  0.59549887     0.16800
O784        O  0.15035202  0.90283462  0.60859655    -0.60200
H785        H  0.14987493  0.88582347  0.58834249     0.43800
H786        H  0.15189946  0.05456107  0.55638370     0.43800
C787        C  0.21230772  0.68211449  0.73359089    -0.05300
C788        C  0.17430460  0.68971605  0.72928413    -0.32700
C789        C  0.14801469  0.66170125  0.72833577     0.36500
C790        C  0.15955968  0.62545915  0.73143411    -0.05700
C791        C  0.19761708  0.61758995  0.73443602    -0.32600
C792        C  0.22399354  0.64569920  0.73580041     0.36400
H793        H  0.16487164  0.71752697  0.72764261     0.16800
O794        O  0.11086291  0.67000604  0.72556409    -0.60100
H795        H  0.20670276  0.58973946  0.73692318     0.16800
O796        O  0.26115237  0.63740056  0.73866182    -0.60200
H797        H  0.26439726  0.63070838  0.76370462     0.43800
H798        H  0.10542013  0.66724811  0.70018459     0.43800
C799        C  0.26597355  0.79881676  0.68812266    -0.05300
C800        C  0.26289828  0.83434433  0.70134988    -0.32700
C801        C  0.26167457  0.86408998  0.67850076     0.36500
C802        C  0.26456910  0.85854690  0.64189983    -0.05700
C803        C  0.26818166  0.82308172  0.62874800    -0.32600
C804        C  0.26844239  0.79331108  0.65150449     0.36400
H805        H  0.26091658  0.83897605  0.72952217     0.16800
O806        O  0.25883075  0.89844880  0.69212847    -0.60100
H807        H  0.27014062  0.81841321  0.60057884     0.16800
O808        O  0.27245587  0.75907602  0.63781474    -0.60200
H809        H  0.24774057  0.75282382  0.62809898     0.43800
H810        H  0.23232118  0.90101623  0.69982303     0.43800
C811        C  0.31574862  0.74496598  0.79837343    -0.05300
C812        C  0.32970482  0.77915710  0.80834887    -0.32700
C813        C  0.35622028  0.78279695  0.83463847     0.36500
C814        C  0.36764419  0.75216584  0.85382049    -0.05700
C815        C  0.35229783  0.71825912  0.84527678    -0.32600
C816        C  0.32768386  0.71423502  0.81734354     0.36400
H817        H  0.32070524  0.80363841  0.79544880     0.16800
O818        O  0.37261963  0.81607362  0.83953235    -0.60100
H819        H  0.35985127  0.69424208  0.85978202     0.16800
O820        O  0.31776314  0.67979733  0.80750541    -0.60200
H821        H  0.30182675  0.67032563  0.82712487     0.43800
H822        H  0.35264822  0.83187305  0.84948168     0.43800
C823        C  0.58413599  0.82142969  0.04683216    -0.05300
C824        C  0.57373532  0.82047233  0.01121450    -0.32700
C825        C  0.56139746  0.85211047  0.99415807     0.36500
C826        C  0.56065363  0.88545015  0.01240624    -0.05700
C827        C  0.57149732  0.88597002  0.04781037    -0.32600
C828        C  0.58201649  0.85460800  0.06513824     0.36400
H829        H  0.57489835  0.79518877  0.99670941     0.16800
O830        O  0.55032788  0.85009530  0.95986769    -0.60100
H831        H  0.56971332  0.91058332  0.06333221     0.16800
O832        O  0.58730282  0.85616940  0.10087024    -0.60200
H833        H  0.60986817  0.87139440  0.10408521     0.43800
H834        H  0.52366952  0.84271861  0.96118173     0.43800
C835        C  0.42923393  0.82308503  0.94922134    -0.05300
C836        C  0.43876103  0.82005905  0.98487031    -0.32700
C837        C  0.44260405  0.85094395  0.00592852     0.36500
C838        C  0.43549398  0.88542448  0.99172270    -0.05700
C839        C  0.42387556  0.88812555  0.95670126    -0.32600
C840        C  0.42180088  0.85759982  0.93527821     0.36400
H841        H  0.44406374  0.79373225  0.99628207     0.16800
O842        O  0.45408674  0.84718820  0.04000110    -0.60100
H843        H  0.41913056  0.91434712  0.94481425     0.16800
O844        O  0.41450870  0.86217271  0.90023160    -0.60200
H845        H  0.43937957  0.86397385  0.88834345     0.43800
H846        H  0.48152554  0.84365431  0.03821872     0.43800
C847        C  0.55269384  0.00956952  0.11951668    -0.05300
C848        C  0.55870712  0.04701663  0.12234929    -0.32700
C849        C  0.56783052  0.06312416  0.15426008     0.36500
C850        C  0.57256828  0.04182913  0.18463073    -0.05700
C851        C  0.56568690  0.00426555  0.18244669    -0.32600
C852        C  0.55526744  0.98814572  0.15025818     0.36400
H853        H  0.55499666  0.06456824  0.09984432     0.16800
O854        O  0.57023273  0.10024201  0.15595419    -0.60100
H855        H  0.56876143  0.98740389  0.20552976     0.16800
O856        O  0.54808398  0.95163074  0.14914084    -0.60200
H857        H  0.52177038  0.94898288  0.15747777     0.43800
H858        H  0.59215096  0.10700182  0.14092832     0.43800
C859        C  0.43821837  0.99295436  0.11725114    -0.05300
C860        C  0.42322624  0.95765644  0.11648755    -0.32700
C861        C  0.41786814  0.93737587  0.14705870     0.36500
C862        C  0.42441252  0.95292771  0.18035030    -0.05700
C863        C  0.43806970  0.98889965  0.18148242    -0.32600
C864        C  0.44550754  0.00865354  0.15029706     0.36400
H865        H  0.41794045  0.94427162  0.09164637     0.16800
O866        O  0.40828420  0.90153596  0.14361887    -0.60100
H867        H  0.44351514  0.00165700  0.20657477     0.16800
O868        O  0.46171790  0.04226903  0.15245977    -0.60200
H869        H  0.44064914  0.05930523  0.15628568     0.43800
H870        H  0.43230925  0.88819360  0.14336483     0.43800
C871        C  0.42585739  0.17699654  0.03539976    -0.05300
C872        C  0.43875369  0.17558601  0.00013079    -0.32700
C873        C  0.44604551  0.14203454  0.98349006     0.36500
C874        C  0.43921531  0.10914736  0.00170598    -0.05700
C875        C  0.42473955  0.11091917  0.03623581    -0.32000
C876        C  0.42004732  0.14386844  0.05350662     0.36400
H877        H  0.44385844  0.20041945  0.98563021     0.16800
O878        O  0.46135441  0.14179002  0.95009129    -0.60100
H879        H  0.42034740  0.08648076  0.05152867     0.16800
O880        O  0.41204734  0.14304132  0.08901600    -0.60200
H881        H  0.43648721  0.14597013  0.10057099     0.43800
H882        H  0.43973099  0.14168245  0.93417824     0.43800
C883        C  0.55716476  0.11486118  0.99609782    -0.05300
C884        C  0.54538041  0.14686520  0.01315899    -0.32700
C885        C  0.54941407  0.18087751  0.99669783     0.36500
C886        C  0.56410302  0.18324638  0.96180894    -0.05700
C887        C  0.57515036  0.15082478  0.94501037    -0.32600
C888        C  0.57294202  0.11747184  0.96187417     0.36400
H889        H  0.53241784  0.14547223  0.03916478     0.16800
O890        O  0.53863252  0.21120326  0.01507343    -0.60100
H891        H  0.58478563  0.15066672  0.91781703     0.16800
O892        O  0.58479120  0.08732240  0.94362065    -0.60200
H893        H  0.56456445  0.08168887  0.92697529     0.43800
H894        H  0.56179802  0.22068797  0.02564032     0.43800
C895        C  0.06417375  0.18721832  0.58089160    -0.05300
C896        C  0.02559902  0.18149477  0.57738734    -0.32700
C897        C  0.01135268  0.14630721  0.57228990     0.36500
C898        C  0.03583100  0.11644352  0.57037078    -0.05700
C899        C  0.07405509  0.12212770  0.57507138    -0.32600
C900        C  0.08828727  0.15694466  0.58037016     0.36400
H901        H  0.00667703  0.20435788  0.57773986     0.16800
O902        O  0.97408059  0.14182932  0.56577254    -0.60100
H903        H  0.09336887  0.09968843  0.57211330     0.16800
O904        O  0.12630965  0.16149688  0.58176758    -0.60200
H905        H  0.13343258  0.15225793  0.60520929     0.43800
H906        H  0.96213296  0.13754273  0.58919272     0.43800
C907        C  0.43964110  0.02562381  0.88163860    -0.05300
C908        C  0.43051081  0.06221904  0.87896297    -0.32700
C909        C  0.42528145  0.07827368  0.84623624     0.36500
C910        C  0.42718658  0.05729777  0.81489780    -0.05700
C911        C  0.43417444  0.01989418  0.81781459    -0.32600
C912        C  0.44102636  0.00417688  0.85085194     0.36400
H913        H  0.43116572  0.07934940  0.90218045     0.16800
O914        O  0.42156390  0.11522467  0.84520680    -0.60100
H915        H  0.43587599  0.00310866  0.79441280     0.16800
O916        O  0.45157912  0.96851463  0.85252166    -0.60200
H917        H  0.47894606  0.96856753  0.84779866     0.43800
H918        H  0.44734916  0.12477643  0.84207888     0.43800
C919        C  0.19217516  0.42856455  0.95995366    -0.05300
C920        C  0.15854765  0.42262259  0.94230481    -0.32700
C921        C  0.12391311  0.42734371  0.95894517     0.36500
C922        C  0.12158498  0.43982298  0.99408621    -0.05700
C923        C  0.15494709  0.44462050  0.01255235    -0.32600
C924        C  0.18998979  0.43819275  0.99607160     0.36400
H925        H  0.15858806  0.41590401  0.91454589     0.16800
O926        O  0.09245679  0.42171890  0.93955035    -0.60100
H927        H  0.15388732  0.45412833  0.03956699     0.16800
O928        O  0.22164392  0.44181989  0.01549927    -0.60200
H929        H  0.22742685  0.41700354  0.02370749     0.43800
H930        H  0.09059053  0.44318407  0.92398645     0.43800
C931        C  0.21064879  0.27244264  0.69143724    -0.05300
C932        C  0.17261835  0.27262576  0.70116453    -0.32700
C933        C  0.14521791  0.26902673  0.67558392     0.36500
C934        C  0.15581556  0.26549259  0.63983127    -0.05700
C935        C  0.19371318  0.26631172  0.63004243    -0.32600
C936        C  0.22110105  0.26943826  0.65555473     0.36400
H937        H  0.16421619  0.27479290  0.72866539     0.16800
O938        O  0.10821365  0.26886898  0.68569824    -0.60100
H939        H  0.20209632  0.26391148  0.60254763     0.16800
O940        O  0.25804097  0.27047443  0.64517804    -0.60200
H941        H  0.26440292  0.24524789  0.63831834     0.43800
H942        H  0.10077182  0.29473917  0.68627381     0.43800
C943        C  0.32500326  0.21902684  0.74360481    -0.05300
C944        C  0.33961061  0.20790330  0.77590688    -0.32700
C945        C  0.36546267  0.17963675  0.77766205     0.36500
C946        C  0.37616776  0.16040791  0.74686262    -0.05700
C947        C  0.36222325  0.17202343  0.71443767    -0.32600
C948        C  0.33760446  0.20137653  0.71249690     0.36400
H949        H  0.33080562  0.22083200  0.80029464     0.16800
O950        O  0.38143721  0.17228859  0.80941461    -0.60100
H951        H  0.37009278  0.15818139  0.69024988     0.16800
O952        O  0.32751253  0.21362568  0.67991785    -0.60200
H953        H  0.31286078  0.19368201  0.66927980     0.43800
H954        H  0.36080180  0.16345014  0.82503657     0.43800
C955        C  0.26569539  0.32877361  0.79890516    -0.05300
C956        C  0.26064907  0.36587595  0.79225213    -0.32700
C957        C  0.25853966  0.39084178  0.82012081     0.36500
C958        C  0.26072084  0.37866827  0.85513385    -0.05700
C959        C  0.26501818  0.34162835  0.86179998    -0.32600
C960        C  0.26777215  0.31676316  0.83406147     0.36400
H961        H  0.25865607  0.37551162  0.76541545     0.16800
O962        O  0.25303285  0.42684890  0.81303367    -0.60100
H963        H  0.26652658  0.33198075  0.88868026     0.16800
O964        O  0.27072811  0.28053442  0.84159427    -0.60200
H965        H  0.29684694  0.27707705  0.84914987     0.43800
H966        H  0.27824964  0.43675608  0.80753163     0.43800
C967        C  0.82236707  0.57217347  0.96028579    -0.05300
C968        C  0.82186292  0.55727805  0.99452800    -0.32700
C969        C  0.85523865  0.55143542  0.01278348     0.36500
C970        C  0.88997989  0.56117898  0.99724174    -0.05700
C971        C  0.89008085  0.57787320  0.96396752    -0.32600
C972        C  0.85728617  0.58231104  0.94523367     0.36400
H973        H  0.79557110  0.54949800  0.00699485     0.16800
O974        O  0.85357817  0.53495801  0.04511615    -0.60100
H975        H  0.91618759  0.58513592  0.95082977     0.16800
O976        O  0.86032158  0.59448853  0.91118729    -0.60200
H977        H  0.86187799  0.57231619  0.89644051     0.43800
H978        H  0.85352243  0.55509287  0.06245913     0.43800
C979        C  0.99589332  0.86735422  0.55886244    -0.05300
C980        C  0.95765141  0.86502089  0.56774320    -0.32700
C981        C  0.93985781  0.83174732  0.57324649     0.36500
C982        C  0.96026423  0.79909374  0.57121634    -0.05700
C983        C  0.99868232  0.80102899  0.56238051    -0.32600
C984        C  0.01646252  0.83475846  0.55610094     0.36400
H985        H  0.94052353  0.88917334  0.56887138     0.16800
O986        O  0.90170407  0.83133098  0.57796886    -0.60100
H987        H  0.01494068  0.77638720  0.56024115     0.16800
O988        O  0.05346834  0.83530078  0.54609579    -0.60200
H989        H  0.06721923  0.83959809  0.56814127     0.43800
H990        H  0.89678002  0.84283520  0.60123842     0.43800
C991        C  0.75161975  0.63628374  0.86630024    -0.05300
C992        C  0.71794198  0.65224146  0.85597823    -0.32700
C993        C  0.71680394  0.67658580  0.82754546     0.36500
C994        C  0.75015529  0.68690126  0.80931336    -0.05700
C995        C  0.78388571  0.67152535  0.82035472    -0.32600
C996        C  0.78468637  0.64584466  0.84743103     0.36400
H997        H  0.69199312  0.64555242  0.86962072     0.16800
O998        O  0.68255907  0.68810759  0.81652379    -0.60100
H999        H  0.81014763  0.67891396  0.80766521     0.16800
O1000       O  0.81804863  0.62934163  0.85418217    -0.60200
H1001       H  0.81777688  0.60649093  0.84036990     0.43800
H1002       H  0.67253317  0.70374368  0.83578027     0.43800
C1003       C  0.86129624  0.73187688  0.63846777    -0.05300
C1004       C  0.87224813  0.73359829  0.67376262    -0.32700
C1005       C  0.84554668  0.73323517  0.70132920     0.36500
C1006       C  0.80719650  0.73122594  0.69382409    -0.05700
C1007       C  0.79630137  0.72975407  0.65850596    -0.32600
C1008       C  0.82297759  0.72981864  0.63097595     0.36400
H1009       H  0.90162563  0.73531327  0.67993254     0.16800
O1010       O  0.85715929  0.73587304  0.73544816    -0.60100
H1011       H  0.76691221  0.72881711  0.65224189     0.16800
O1012       O  0.81131118  0.72971638  0.59677498    -0.60200
H1013       H  0.80385929  0.70431880  0.59191685     0.43800
H1014       H  0.85722567  0.76219762  0.74078862     0.43800
C1015       C  0.57063878  0.96865174  0.88236869    -0.05300
C1016       C  0.56730002  0.99169776  0.85306756    -0.32700
C1017       C  0.57159400  0.97828320  0.81842323     0.36500
C1018       C  0.57878321  0.94112185  0.81267698    -0.05700
C1019       C  0.58331565  0.91868467  0.84235356    -0.32600
C1020       C  0.57955673  0.93213676  0.87661227     0.36400
H1021       H  0.55869226  0.01957416  0.85698278     0.16800
O1022       O  0.56759424  0.00150397  0.79061974    -0.60100
H1023       H  0.58824394  0.88990578  0.83915865     0.16800
O1024       O  0.58201432  0.90872697  0.90451186    -0.60200
H1025       H  0.55745874  0.89627215  0.90592681     0.43800
H1026       H  0.59337020  0.00895529  0.78382669     0.43800
C1027       C  0.69573075  0.79317400  0.74506795    -0.05300
C1028       C  0.65821192  0.78350712  0.74038744    -0.32700
C1029       C  0.63065831  0.81021757  0.73764840     0.36500
C1030       C  0.64051261  0.84706253  0.74035906    -0.05700
C1031       C  0.67819121  0.85659905  0.74459904    -0.32600
C1032       C  0.70575078  0.82997192  0.74662920     0.36400
H1033       H  0.65031468  0.75517916  0.73894368     0.16800
O1034       O  0.59400535  0.80005124  0.73440653    -0.60100
H1035       H  0.68614664  0.88484975  0.74693102     0.16800
O1036       O  0.74214830  0.84004681  0.75181950    -0.60200
H1037       H  0.75239764  0.84589084  0.72803214     0.43800
H1038       H  0.59110804  0.79442523  0.70904952     0.43800
C1039       C  0.45704668  0.30844431  0.06749470    -0.05300
C1040       C  0.49508007  0.30941170  0.05707825    -0.32700
C1041       C  0.51380492  0.34266845  0.05129008     0.36500
C1042       C  0.49468111  0.37579971  0.05631983    -0.05700
C1043       C  0.45707667  0.37455250  0.06759304    -0.32600
C1044       C  0.43816908  0.34177507  0.07216856     0.36400
H1045       H  0.51030378  0.28437304  0.05307972     0.16800
O1046       O  0.55012028  0.34228617  0.03913313    -0.60100
H1047       H  0.44117203  0.39930126  0.07098695     0.16800
O1048       O  0.40048956  0.34291770  0.07949518    -0.60200
H1049       H  0.38837724  0.34092205  0.05629669     0.43800
H1050       H  0.56547351  0.34373535  0.06054421     0.43800
C1051       C  0.52686995  0.31311249  0.92898242    -0.05300
C1052       C  0.54602991  0.34541089  0.92043328    -0.32700
C1053       C  0.53117229  0.37926304  0.92837950     0.36500
C1054       C  0.49727062  0.38215577  0.94763507    -0.05700
C1055       C  0.47676279  0.35032859  0.95489384    -0.32600
C1056       C  0.49096429  0.31603469  0.94516943     0.36400
H1057       H  0.57383551  0.34488281  0.90873141     0.16800
O1058       O  0.55165829  0.40941421  0.91919148    -0.60100
H1059       H  0.45058270  0.35182280  0.96964592     0.16800
O1060       O  0.46977898  0.28584403  0.95234841    -0.60200
H1061       H  0.45663618  0.28046530  0.93019034     0.43800
H1062       H  0.54092496  0.41790489  0.89680663     0.43800
C1063       C  0.68912490  0.46244723  0.08431257    -0.05300
C1064       C  0.65523861  0.44570313  0.09485556    -0.32700
C1065       C  0.62069660  0.46194405  0.08936675     0.36500
C1066       C  0.61882153  0.49497448  0.07094589    -0.05700
C1067       C  0.65244112  0.51386195  0.06391168    -0.32600
C1068       C  0.68739870  0.49810361  0.07087527     0.36400
H1069       H  0.65476410  0.41857202  0.10557749     0.16800
O1070       O  0.58884698  0.44397328  0.10023641    -0.60100
H1071       H  0.65186852  0.53980776  0.05067702     0.16800
O1072       O  0.71944297  0.51783096  0.06477954    -0.60200
H1073       H  0.72032288  0.52288186  0.03913275     0.43800
H1074       H  0.58753628  0.42189410  0.08540199     0.43800
C1075       C  0.62506104  0.49067923  0.94698540    -0.05300
C1076       C  0.62978041  0.50599333  0.91342047    -0.32700
C1077       C  0.66387822  0.52226280  0.90289060     0.36500
C1078       C  0.69318608  0.52638495  0.92736163    -0.05700
C1079       C  0.68943791  0.50704599  0.95935530    -0.32600
C1080       C  0.65662985  0.48803401  0.96831268     0.36400
H1081       H  0.60656034  0.50627043  0.89554682     0.16800
O1082       O  0.66855425  0.53266227  0.86837226    -0.60100
H1083       H  0.71106468  0.50760351  0.97871198     0.16800
O1084       O  0.65484201  0.46946271  0.99950222    -0.60200
H1085       H  0.66682045  0.44579859  0.99447345     0.43800
H1086       H  0.64845246  0.55042019  0.86380658     0.43800
C1087       C  0.54090047  0.61938571  0.07328501    -0.05300
C1088       C  0.51689161  0.64937800  0.07545600    -0.32700
C1089       C  0.53123691  0.68450824  0.08058591     0.36500
C1090       C  0.57007289  0.68974730  0.08415017    -0.05700
C1091       C  0.59339918  0.65912604  0.08468012    -0.32600
C1092       C  0.57914836  0.62438221  0.07915494     0.36400
H1093       H  0.48742932  0.64599351  0.07023688     0.16800
O1094       O  0.50719762  0.71340688  0.08194364    -0.60100
H1095       H  0.62331862  0.66220525  0.08732992     0.16800
O1096       O  0.60321270  0.59553798  0.07725689    -0.60200
H1097       H  0.61481270  0.59674170  0.05333614     0.43800
H1098       H  0.49799642  0.71617952  0.05772715     0.43800
C1099       C  0.49046528  0.62769937  0.95068287    -0.05300
C1100       C  0.48737780  0.65769264  0.97325019    -0.32700
C1101       C  0.47623353  0.69129227  0.96104213     0.36500
C1102       C  0.46964620  0.69640358  0.92474639    -0.05700
C1103       C  0.47675097  0.66706447  0.90150710    -0.32600
C1104       C  0.48659159  0.63272868  0.91433867     0.36400
H1105       H  0.49126022  0.65458649  0.00132329     0.16800
O1106       O  0.46910728  0.71781937  0.98561765    -0.60100
H1107       H  0.47296650  0.67012869  0.87346461     0.16800
O1108       O  0.48920476  0.60391444  0.89160484    -0.60200
H1109       H  0.51574622  0.60342473  0.88364648     0.43800
H1110       H  0.44268075  0.71418196  0.99320288     0.43800
C1111       C  0.31649929  0.54545175  0.07496237    -0.05300
C1112       C  0.34975049  0.56038983  0.08758003    -0.32700
C1113       C  0.38392610  0.54262179  0.08307705     0.36500
C1114       C  0.38592106  0.50903504  0.06507610    -0.05700
C1115       C  0.35249067  0.49330606  0.05347965    -0.32600
C1116       C  0.31802181  0.51092351  0.05866679     0.36400
H1117       H  0.34976869  0.58691326  0.09982489     0.16800
O1118       O  0.41548261  0.55950924  0.09495036    -0.60100
H1119       H  0.35317094  0.46776571  0.03935865     0.16800
O1120       O  0.28618907  0.49432868  0.04712082    -0.60200
H1121       H  0.27562502  0.48149414  0.06799084     0.43800
H1122       H  0.42217130  0.57772332  0.07666149     0.43800
C1123       C  0.32498735  0.46954916  0.92880289    -0.05300
C1124       C  0.32498757  0.50430835  0.94425460    -0.32700
C1125       C  0.35867936  0.52098357  0.95425199     0.36500
C1126       C  0.39314248  0.50334402  0.94786630    -0.05700
C1127       C  0.39286706  0.46962159  0.93063120    -0.32600
C1128       C  0.35960690  0.45231519  0.92227402     0.36400
H1129       H  0.29883206  0.51823366  0.94935829     0.16800
O1130       O  0.35756001  0.55422140  0.97046807    -0.60100
H1131       H  0.41853679  0.45471089  0.92607197     0.16800
O1132       O  0.36122414  0.41689965  0.91111432    -0.60200
H1133       H  0.37343534  0.41754888  0.88742985     0.43800
H1134       H  0.34946828  0.54932839  0.99513979     0.43800
C1135       C  0.08293290  0.43375747  0.31009767    -0.05300
C1136       C  0.08452775  0.41118877  0.33999103    -0.32700
C1137       C  0.08109181  0.42515279  0.37403533     0.36500
C1138       C  0.07447645  0.46225726  0.37925149    -0.05700
C1139       C  0.07538270  0.48548312  0.34990514    -0.32600
C1140       C  0.07976198  0.47151141  0.31544254     0.36400
H1141       H  0.08665530  0.38205716  0.33708446     0.16800
O1142       O  0.07995515  0.40163683  0.40200892    -0.60100
H1143       H  0.06959573  0.51408297  0.35344169     0.16800
O1144       O  0.08078852  0.49485711  0.28736230    -0.60200
H1145       H  0.05493217  0.50414277  0.28539460     0.43800
H1146       H  0.10510462  0.40314380  0.41242417     0.43800
C1147       C  0.93968141  0.52270777  0.37873871    -0.05300
C1148       C  0.93338628  0.56009609  0.37797265    -0.32700
C1149       C  0.93039720  0.57859716  0.34611474     0.36500
C1150       C  0.93169800  0.55951642  0.31365993    -0.05700
C1151       C  0.93555530  0.52152923  0.31460798    -0.32600
C1152       C  0.93995769  0.50321931  0.34677315     0.36400
H1153       H  0.93491336  0.57572124  0.40213608     0.16800
O1154       O  0.92935354  0.61575129  0.34715412    -0.60100
H1155       H  0.93656095  0.50610308  0.29031842     0.16800
O1156       O  0.94847846  0.46701086  0.34633339    -0.60200
H1157       H  0.92469913  0.45445197  0.35240500     0.43800
H1158       H  0.95581720  0.62365961  0.34505389     0.43800
C1159       C  0.08386809  0.52624160  0.67802970    -0.05300
C1160       C  0.09205185  0.54211158  0.64501515    -0.32700
C1161       C  0.08324697  0.52517664  0.61346275     0.36500
C1162       C  0.06288758  0.49240122  0.61342942    -0.05700
C1163       C  0.05485063  0.47569380  0.64605005    -0.32600
C1164       C  0.06575968  0.49191515  0.67808075     0.36400
H1165       H  0.10454625  0.56875966  0.64305358     0.16800
O1166       O  0.09314961  0.54232577  0.58259479    -0.60100
H1167       H  0.03893162  0.45068492  0.64686935     0.16800
O1168       O  0.05802879  0.47402981  0.70898246    -0.60200
H1169       H  0.08122846  0.46068623  0.71435705     0.43800
H1170       H  0.11657524  0.53038107  0.57446411     0.43800
C1171       C  0.94481096  0.48538737  0.61645508    -0.05300
C1172       C  0.95072470  0.50422786  0.64817827    -0.32700
C1173       C  0.94231455  0.48813335  0.68125616     0.36500
C1174       C  0.92796071  0.45234201  0.68314012    -0.05700
C1175       C  0.92243846  0.43382662  0.65121906    -0.32600
C1176       C  0.92961384  0.45002089  0.61859345     0.36400
H1177       H  0.96283755  0.53115525  0.64746002     0.16800
O1178       O  0.94733619  0.50803011  0.71132873    -0.60100
H1179       H  0.91268659  0.40602117  0.65124834     0.16800
O1180       O  0.92277325  0.43007046  0.58886462    -0.60200
H1181       H  0.89678781  0.43611256  0.58250272     0.43800
H1182       H  0.97480163  0.50957670  0.71412840     0.43800
C1183       C  0.07091184  0.38175131  0.50050253    -0.05300
C1184       C  0.06300401  0.34744777  0.48599476    -0.32700
C1185       C  0.07289445  0.31519384  0.50356312     0.36500
C1186       C  0.08964124  0.31677355  0.53711351    -0.05700
C1187       C  0.09948336  0.35135098  0.54989372    -0.32600
C1188       C  0.09213957  0.38296318  0.53141136     0.36400
H1189       H  0.04734230  0.34552770  0.46193899     0.16800
O1190       O  0.06497506  0.28263639  0.48796993    -0.60100
H1191       H  0.11155444  0.35486354  0.57552956     0.16800
O1192       O  0.10316266  0.41523033  0.54596906    -0.60200
H1193       H  0.12748974  0.42098147  0.53428216     0.43800
H1194       H  0.08793684  0.27615727  0.47436310     0.43800
C1195       C  0.92385151  0.31141541  0.45916580    -0.05300
C1196       C  0.95449096  0.31293664  0.48202367    -0.32700
C1197       C  0.96145169  0.34365919  0.50273587     0.36500
C1198       C  0.93984901  0.37512793  0.49867988    -0.05700
C1199       C  0.90710767  0.37255528  0.47913141    -0.32600
C1200       C  0.89839803  0.34088756  0.46033854     0.36400
H1201       H  0.97444148  0.29106048  0.48308393     0.16800
O1202       O  0.99123294  0.34346039  0.52483816    -0.60100
H1203       H  0.88886972  0.39582113  0.47710688     0.16800
O1204       O  0.86456823  0.33890506  0.44400908    -0.60200
H1205       H  0.86468480  0.35875334  0.42638305     0.43800
H1206       H  0.98186154  0.33157535  0.54670993     0.43800
C1207       C  0.93822518  0.60120496  0.50150923    -0.05300
C1208       C  0.94874791  0.63430877  0.48579391    -0.32700
C1209       C  0.94183336  0.66772459  0.50288449     0.36500
C1210       C  0.92545020  0.66857450  0.53722234    -0.05700
C1211       C  0.91338518  0.63521979  0.55170139    -0.32600
C1212       C  0.91793549  0.60247105  0.53374838     0.36400
H1213       H  0.96381193  0.63433661  0.46074624     0.16800
O1214       O  0.95066904  0.69914485  0.48539512    -0.60100
H1215       H  0.90146938  0.63363034  0.57802844     0.16800
O1216       O  0.90500414  0.57147442  0.54981310    -0.60200
H1217       H  0.88054941  0.56645584  0.53895157     0.43800
H1218       H  0.97831903  0.69909260  0.48265260     0.43800
C1219       C  0.06690984  0.67462150  0.45578508    -0.05300
C1220       C  0.05748570  0.67352199  0.49208877    -0.32700
C1221       C  0.05214918  0.64018765  0.50982774     0.36500
C1222       C  0.05778113  0.60713959  0.49176792    -0.05700
C1223       C  0.06779357  0.60842632  0.45584507    -0.32600
C1224       C  0.07140649  0.64124466  0.43778855     0.36400
H1225       H  0.05375811  0.69847879  0.50675749     0.16800
O1226       O  0.04161760  0.64025241  0.54474876    -0.60100
H1227       H  0.07055006  0.58360907  0.44072070     0.16800
O1228       O  0.07607166  0.64014804  0.40179885    -0.60200
H1229       H  0.10119209  0.62957671  0.39736475     0.43800
H1230       H  0.01411498  0.64350332  0.54498215     0.43800
C1231       C  0.49995775  0.05466956  0.62070948    -0.05300
C1232       C  0.51816471  0.04739789  0.65245852    -0.32700
C1233       C  0.50308555  0.05931933  0.68511105     0.36500
C1234       C  0.46870571  0.07826643  0.68657712    -0.05700
C1235       C  0.45167256  0.08657429  0.65449076    -0.32600
C1236       C  0.46701281  0.07557937  0.62214244     0.36400
H1237       H  0.54337038  0.03120868  0.65216304     0.16800
O1238       O  0.52209516  0.05185553  0.71521049    -0.60100
H1239       H  0.42518281  0.10064646  0.65416894     0.16800
O1240       O  0.44891488  0.08501071  0.59196650    -0.60200
H1241       H  0.42666784  0.06894736  0.59111548     0.43800
H1242       H  0.53602363  0.07439277  0.72061469     0.43800
C1243       C  0.50214547  0.93913310  0.62066395    -0.05300
C1244       C  0.53825062  0.92422060  0.61963666    -0.32700
C1245       C  0.55755204  0.91611977  0.65020831     0.36500
C1246       C  0.54037663  0.92064427  0.68383235    -0.05700
C1247       C  0.50369526  0.93485414  0.68519067    -0.32600
C1248       C  0.48489707  0.94460540  0.65406016     0.36400
H1249       H  0.55308830  0.92061794  0.59471991     0.16800
O1250       O  0.59462624  0.90695903  0.64676340    -0.60100
H1251       H  0.48967928  0.93896136  0.71040892     0.16800
O1252       O  0.45031994  0.96036176  0.65675920    -0.60200
H1253       H  0.45527211  0.98662354  0.65979169     0.43800
H1254       H  0.59516178  0.88336277  0.63416632     0.43800
C1255       C  0.38650626  0.05742438  0.49793791    -0.05300
C1256       C  0.38736408  0.06767545  0.46234525    -0.32700
C1257       C  0.35462654  0.07347115  0.44379951     0.36500
C1258       C  0.31925621  0.07050322  0.46089991    -0.05700
C1259       C  0.31831797  0.06210295  0.49721813    -0.32600
C1260       C  0.35152217  0.05516704  0.51557681     0.36400
H1261       H  0.41365800  0.06867570  0.44770790     0.16800
O1262       O  0.35765529  0.07848214  0.40803443    -0.60100
H1263       H  0.29179123  0.06007841  0.51129499     0.16800
O1264       O  0.34943442  0.04617625  0.55059535    -0.60200
H1265       H  0.34681523  0.01943262  0.55114132     0.43800
H1266       H  0.36933301  0.10270152  0.40483730     0.43800
C1267       C  0.38411455  0.93759800  0.49759147    -0.05300
C1268       C  0.35293773  0.96032714  0.49513574    -0.32700
C1269       C  0.31985955  0.95311653  0.51409929     0.36500
C1270       C  0.31611393  0.92087223  0.53416649    -0.05700
C1271       C  0.34533886  0.89519970  0.53109522    -0.32600
C1272       C  0.37950087  0.90389612  0.51428973     0.36400
H1273       H  0.35541675  0.98615964  0.48182867     0.16800
O1274       O  0.29349234  0.97992133  0.51566794    -0.60100
H1275       H  0.34291085  0.86887061  0.54337370     0.16800
O1276       O  0.40859782  0.87982579  0.51544085    -0.60200
H1277       H  0.41839045  0.88181029  0.53963414     0.43800
H1278       H  0.28124916  0.97922631  0.49247159     0.43800
C1279       C  0.53955919  0.06332156  0.38687065    -0.05300
C1280       C  0.57793353  0.06226739  0.37881265    -0.32700
C1281       C  0.59112967  0.06514446  0.34414406     0.36500
C1282       C  0.56601495  0.07052011  0.31645914    -0.05700
C1283       C  0.52768496  0.07388579  0.32459726    -0.32600
C1284       C  0.51439092  0.07045347  0.35962602     0.36400
H1285       H  0.59759134  0.05570776  0.39920234     0.16800
O1286       O  0.62868533  0.06093805  0.33737799    -0.60100
H1287       H  0.50806054  0.07860129  0.30375640     0.16800
O1288       O  0.47660943  0.07046005  0.36635518    -0.60200
H1289       H  0.47110234  0.09473678  0.37639447     0.43800
H1290       H  0.63204379  0.03473748  0.33238684     0.43800
C1291       C  0.48111073  0.94313338  0.37516939    -0.05300
C1292       C  0.47893825  0.96904927  0.34817538    -0.32700
C1293       C  0.46426552  0.96068919  0.31544542     0.36500
C1294       C  0.45293678  0.92488241  0.30778019    -0.05700
C1295       C  0.45830123  0.89801900  0.33385210    -0.32600
C1296       C  0.47199558  0.90700154  0.36741889     0.36400
H1297       H  0.48637237  0.99700540  0.35328042     0.16800
O1298       O  0.45866771  0.98862432  0.29235406    -0.60100
H1299       H  0.45060728  0.87013886  0.32874776     0.16800
O1300       O  0.47355099  0.88094755  0.39301437    -0.60200
H1301       H  0.49816070  0.86911076  0.38934133     0.43800
H1302       H  0.43324247  0.99781141  0.29806386     0.43800
C1303       C  0.61593460  0.05759788  0.51016767    -0.05300
C1304       C  0.61481393  0.07097362  0.54478094    -0.32700
C1305       C  0.64736901  0.07822505  0.56307848     0.36500
C1306       C  0.68283932  0.07442296  0.54635259    -0.05700
C1307       C  0.68405945  0.06386111  0.51058973    -0.32600
C1308       C  0.65100119  0.05508265  0.49264230     0.36400
H1309       H  0.58854835  0.07278288  0.55933013     0.16800
O1310       O  0.64405588  0.08514442  0.59853589    -0.60100
H1311       H  0.71068484  0.06128532  0.49678449     0.16800
O1312       O  0.65333081  0.04335068  0.45837496    -0.60200
H1313       H  0.66126956  0.01767610  0.45965583     0.43800
H1314       H  0.63070620  0.10861398  0.60054063     0.43800
C1315       C  0.61963517  0.93258606  0.50742237    -0.05300
C1316       C  0.62474295  0.90008346  0.48876397    -0.32700
C1317       C  0.65928012  0.89184978  0.47226403     0.36500
C1318       C  0.68883536  0.91762035  0.47220283    -0.05700
C1319       C  0.68452858  0.94818369  0.49426788    -0.32600
C1320       C  0.65113395  0.95476803  0.51288411     0.36400
H1321       H  0.60146017  0.88157545  0.48578036     0.16800
O1322       O  0.66397877  0.85833710  0.45705507    -0.60100
H1323       H  0.70615972  0.96857145  0.49597534     0.16800
O1324       O  0.64881424  0.98499801  0.53380083    -0.60200
H1325       H  0.65406119  0.97638392  0.55791419     0.43800
H1326       H  0.64472427  0.85638355  0.43869491     0.43800
loop_ 
_geom_bond_atom_site_label_1 
_geom_bond_atom_site_label_2 
_geom_bond_distance 
_geom_bond_site_symmetry_2 
_ccdc_geom_bond_type 
O1            C9   1.263       .  A
O1          Co21   1.976       .  S
O2           C10   1.271       .  A
O2          Co22   1.964       .  S
O3           C11   1.283       .  A
O3          Co23   2.051   1_565  S
O4           C12   1.268       .  A
O4          Co24   1.974   1_565  S
O5           C11   1.276       .  A
O5          Co22   1.963       .  S
O6           C12   1.278       .  A
O6          Co21   2.014       .  S
O7           C10   1.284       .  A
O7          Co24   2.039   1_565  S
O8            C9   1.267       .  A
O8          Co23   2.012   1_565  S
C9         C1315   1.489       .  S
C10        C1267   1.484       .  S
C11        C1243   1.501       .  S
C12        C1291   1.487       .  S
O13          C26   1.263       .  A
O13         Co21   1.969   1_545  S
O14          C27   1.285       .  A
O14         Co22   2.067   1_545  S
O15          C28   1.266       .  A
O15         Co23   1.957       .  S
O16          C29   1.258       .  A
O16         Co24   1.962       .  S
O17          C29   1.268       .  A
O17         Co22   2.037   1_545  S
O18          C28   1.284       .  A
O18         Co21   2.061   1_545  S
O19          C26   1.273       .  A
O19         Co24   1.998       .  S
O20          C27   1.269       .  A
O20         Co23   1.941       .  S
Co21         O25   2.048       .  S
Co22         O25   2.060       .  S
Co23         O25   2.010   1_545  S
Co24         O25   2.016   1_545  S
C26        C1279   1.472       .  S
C27        C1231   1.492       .  S
C28        C1303   1.491       .  S
C29        C1255   1.492       .  S
O30          C38   1.268       .  A
O30         Co50   1.954       .  S
O31          C39   1.259       .  A
O31         Co51   1.970       .  S
O32          C40   1.264       .  A
O32         Co52   1.972   1_655  S
O33          C41   1.283       .  A
O33         Co53   2.056   1_655  S
O34          C40   1.274       .  A
O34         Co51   2.004       .  S
O35          C41   1.273       .  A
O35         Co50   1.953       .  S
O36          C39   1.269       .  A
O36         Co53   2.027   1_655  S
O37          C38   1.286       .  A
O37         Co52   2.061   1_655  S
C38        C1207   1.494       .  S
C39        C1198   1.489       .  S
C40        C1147   1.471       .  S
C41        C1171   1.498       .  S
O42          C55   1.284       .  A
O42         Co50   2.057   1_455  S
O43          C56   1.266       .  A
O43         Co51   1.977   1_455  S
O44          C57   1.258       .  A
O44         Co52   1.960       .  S
O45          C58   1.265       .  A
O45         Co53   1.953       .  S
O46          C58   1.285       .  A
O46         Co51   2.067   1_455  S
O47          C57   1.266       .  A
O47         Co50   2.038   1_455  S
O48          C55   1.272       .  A
O48         Co53   1.949       .  S
O49          C56   1.273       .  A
O49         Co52   1.996       .  S
Co50         O54   2.043   1_655  S
Co51         O54   2.036   1_655  S
Co52         O54   2.028       .  S
Co53         O54   2.026       .  S
C55        C1162   1.493       .  S
C56        C1138   1.470       .  S
C57        C1222   1.494       .  S
C58        C1183   1.497       .  S
O59          C67   1.254       .  A
O59         Co79   1.959       .  S
O60          C68   1.270       .  A
O60         Co80   1.962       .  S
O61          C69   1.287       .  A
O61         Co81   2.063   1_554  S
O62          C70   1.267       .  A
O62         Co82   1.986   1_554  S
O63          C69   1.271       .  A
O63         Co80   1.938       .  S
O64          C70   1.270       .  A
O64         Co79   1.988       .  S
O65          C68   1.283       .  A
O65         Co82   2.045   1_554  S
O66          C67   1.266       .  A
O66         Co81   2.031   1_554  S
C67        C1114   1.492       .  S
C68        C1066   1.491       .  S
C69        C1042   1.493       .  S
C70        C1087   1.468       .  S
O71          C84   1.267       .  A
O71         Co79   1.974   1_556  S
O72          C85   1.288       .  A
O72         Co80   2.069   1_556  S
O73          C86   1.264       .  A
O73         Co81   1.953       .  S
O74          C87   1.260       .  A
O74         Co82   1.976       .  S
O75          C87   1.267       .  A
O75         Co80   2.021   1_556  S
O76          C86   1.282       .  A
O76         Co79   2.057   1_556  S
O77          C84   1.270       .  A
O77         Co82   1.992       .  S
O78          C85   1.270       .  A
O78         Co81   1.931       .  S
Co79         O83   2.032       .  S
Co80         O83   2.022       .  S
Co81         O83   2.027   1_556  S
Co82         O83   2.029   1_556  S
C84        C1099   1.474       .  S
C85        C1054   1.484       .  S
C86        C1126   1.489       .  S
C87        C1075   1.491       .  S
C88        C1018   1.500       .  S
C88          C89   1.422       .  A
C88          C93   1.401       .  A
C89          C90   1.423       .  A
C89          H94   1.081       .  S
C90        C1246   1.513       .  S
C90          C91   1.414       .  A
C91          C92   1.398       .  A
C91          H95   1.081       .  S
C92        C1030   1.480       .  S
C92          C93   1.390       .  A
C93          H96   1.084       .  S
C97         C994   1.508       .  S
C97          C98   1.411       .  A
C97         C102   1.418       .  A
C98          C99   1.402       .  A
C98         H103   1.080       .  S
C99        C1027   1.474       .  S
C99         C100   1.396       .  A
C100        C101   1.399       .  A
C100        H104   1.084       .  S
C101       C1006   1.485       .  S
C101        C102   1.408       .  A
C102        H105   1.082       .  S
C106       C1210   1.516       .  S
C106        C107   1.423       .  A
C106        C111   1.414       .  A
C107        C108   1.416       .  A
C107        H112   1.078       .  S
C108        C982   1.501       .  S
C108        C109   1.406       .  A
C109        C110   1.396       .  A
C109        H113   1.083       .  S
C110       C1003   1.485       .  S
C110        C111   1.398       .  A
C111        H114   1.081       .  S
C115        C967   1.503       .  S
C115        C116   1.405       .  A
C115        C120   1.410       .  A
C116        C117   1.402       .  A
C116        H121   1.082       .  S
C117        C991   1.504       .  S
C117        C118   1.409       .  A
C118        C119   1.417       .  A
C118        H122   1.074       .  S
C119       C1078   1.521       .  S
C119        C120   1.418       .  A
C120        H123   1.077       .  S
C124        C943   1.495       .  S
C124        C125   1.403       .  A
C124        C129   1.408       .  A
C125        C126   1.400       .  A
C125        H130   1.081       .  S
C126        C931   1.477       .  S
C126        C127   1.402       .  A
C127        C128   1.403       .  A
C127        H131   1.084       .  S
C128        C955   1.482       .  S
C128        C129   1.405       .  A
C129        H132   1.082       .  S
C133       C1123   1.494       .  S
C133        C134   1.405       .  A
C133        C138   1.413       .  A
C134        C135   1.393       .  A
C134        H139   1.083       .  S
C135        C958   1.476       .  S
C135        C136   1.396       .  A
C136        C137   1.410       .  A
C136        H140   1.083       .  S
C137        C919   1.502       .  S
C137        C138   1.416       .  A
C138        H141   1.080       .  S
C142        C910   1.499       .  S
C142        C143   1.402       .  A
C142        C147   1.415       .  A
C143        C144   1.399       .  A
C143        H148   1.081       .  S
C144        C946   1.495       .  S
C144        C145   1.404       .  A
C145        C146   1.411       .  A
C145        H149   1.082       .  S
C146       C1234   1.507       .  S
C146        C147   1.417       .  A
C147        H150   1.080       .  S
C151        C895   1.489       .  S
C151        C152   1.400       .  A
C151        C156   1.418       .  A
C152        C153   1.391       .  A
C152        H157   1.084       .  S
C153        C934   1.473       .  S
C153        C154   1.395       .  A
C154        C155   1.413       .  A
C154        H158   1.081       .  S
C155       C1186   1.515       .  S
C155        C156   1.423       .  A
C156        H159   1.080       .  S
O160        C168   1.262       .  A
O160       Co180   1.982       .  S
O161        C169   1.280   1_565  A
O161       Co181   2.027       .  S
O162        C170   1.259   1_556  A
O162       Co182   1.964       .  S
O163        C171   1.270   1_554  A
O163       Co183   1.961       .  S
O164        C170   1.255       .  A
O164       Co181   1.982       .  S
O165        C171   1.280       .  A
O165       Co180   2.045       .  S
O166        C169   1.276       .  A
O166       Co183   1.958       .  S
O167        C168   1.267   1_565  A
O167       Co182   1.993       .  S
C168        C907   1.469       .  S
C169        C859   1.490   1_545  S
C170        C838   1.472   1_554  S
C171        C874   1.489   1_556  S
O172        C185   1.261   1_556  A
O172       Co180   1.964       .  S
O173        C186   1.255   1_554  A
O173       Co181   1.931       .  S
O174        C187   1.267       .  A
O174       Co182   1.979       .  S
O175        C188   1.261   1_545  A
O175       Co183   2.010       .  S
O176        C188   1.246       .  A
O176       Co181   1.981       .  S
O177        C187   1.275   1_545  A
O177       Co180   1.993       .  S
O178        C185   1.267       .  A
O178       Co183   2.020       .  S
O179        C186   1.280       .  A
O179       Co182   2.068       .  S
Co180       O184   2.043   1_545  S
Co181       O184   2.082   1_554  S
Co182       O184   2.062       .  S
Co183       O184   2.006   1_544  S
C185        C883   1.485   1_554  S
C186        C826   1.487   1_556  S
C187       C1015   1.471       .  S
C188        C847   1.489   1_565  S
C189        C811   1.502       .  S
C189        C190   1.410       .  A
C189        C194   1.410       .  A
C190        C191   1.404       .  A
C190        H195   1.079       .  S
C191        C787   1.480       .  S
C191        C192   1.402       .  A
C192        C193   1.401       .  A
C192        H196   1.083       .  S
C193        C799   1.480       .  S
C193        C194   1.400       .  A
C194        H197   1.082       .  S
C198       C1102   1.496       .  S
C198        C199   1.407       .  A
C198        C203   1.405       .  A
C199        C200   1.408       .  A
C199        H204   1.079       .  S
C200        C814   1.493       .  S
C200        C201   1.402       .  A
C201        C202   1.400       .  A
C201        H205   1.081       .  S
C202        C835   1.481       .  S
C202        C203   1.401       .  A
C203        H206   1.082       .  S
C207        C775   1.498       .  S
C207        C208   1.406       .  A
C207        C212   1.411       .  A
C208        C209   1.399       .  A
C208        H213   1.081       .  S
C209        C802   1.480       .  S
C209        C210   1.400       .  A
C210        C211   1.411       .  A
C210        H214   1.081       .  S
C211       C1270   1.512       .  S
C211        C212   1.414       .  A
C212        H215   1.078       .  S
C216       C1159   1.515       .  S
C216        C217   1.425       .  A
C216        C221   1.418       .  A
C217        C218   1.418       .  A
C217        H222   1.080       .  S
C218        C763   1.492       .  S
C218        C219   1.397       .  A
C219        C220   1.388       .  A
C219        H223   1.085       .  S
C220        C790   1.473       .  S
C220        C221   1.395       .  A
C221        H224   1.082       .  S
C225        C739   1.476       .  S
C225        C226   1.400       .  A
C225        C230   1.402       .  A
C226        C227   1.398       .  A
C226        H231   1.084       .  S
C227        C727   1.472       .  S
C227        C228   1.403       .  A
C228        C229   1.406       .  A
C228        H232   1.084       .  S
C229        C751   1.478       .  S
C229        C230   1.402       .  A
C230        H233   1.083       .  S
C234       C1195   1.513       .  S
C234        C235   1.417       .  A
C234        C239   1.415       .  A
C235        C236   1.409       .  A
C235        H240   1.081       .  S
C236        C715   1.481       .  S
C236        C237   1.396       .  A
C237        C238   1.392       .  A
C237        H241   1.084       .  S
C238        C754   1.473       .  S
C238        C239   1.402       .  A
C239        H242   1.078       .  S
C243        C706   1.509       .  S
C243        C244   1.407       .  A
C243        C248   1.421       .  A
C244        C245   1.394       .  A
C244        H249   1.082       .  S
C245        C742   1.476       .  S
C245        C246   1.393       .  A
C246        C247   1.406       .  A
C246        H250   1.083       .  S
C247       C1063   1.506       .  S
C247        C248   1.420       .  A
C248        H251   1.075       .  S
C252       C1282   1.487       .  S
C252        C253   1.416       .  A
C252        C257   1.398       .  A
C253        C254   1.417       .  A
C253        H258   1.083       .  S
C254        C850   1.495       .  S
C254        C255   1.410       .  A
C255        C256   1.396       .  A
C255        H259   1.083       .  S
C256        C730   1.475       .  S
C256        C257   1.392       .  A
C257        H260   1.085       .  S
O261        C269   1.258   1_556  A
O261       Co281   1.959       .  S
O262        C270   1.270   1_554  A
O262       Co282   1.964       .  S
O263        C271   1.284   1_655  A
O263       Co283   2.056       .  S
O264        C272   1.264       .  A
O264       Co284   1.973       .  S
O265        C271   1.273       .  A
O265       Co282   1.955       .  S
O266        C272   1.274       .  A
O266       Co281   1.999   1_455  S
O267        C270   1.286       .  A
O267       Co284   2.045       .  S
O268        C269   1.270       .  A
O268       Co283   2.039       .  S
C269        C970   1.493   1_554  S
C270        C694   1.487       .  S
C271        C667   1.498       .  S
C272        C766   1.471       .  S
O273        C286   1.267       .  A
O273       Co281   1.983       .  S
O274        C287   1.283   1_455  A
O274       Co282   2.060       .  S
O275        C288   1.267   1_554  A
O275       Co283   1.956       .  S
O276        C289   1.257   1_556  A
O276       Co284   1.961       .  S
O277        C289   1.266       .  A
O277       Co282   2.030       .  S
O278        C288   1.282       .  A
O278       Co281   2.050       .  S
O279        C286   1.275   1_455  A
O279       Co284   1.999       .  S
O280        C287   1.275       .  A
O280       Co283   1.959       .  S
Co281       O285   2.028   1_655  S
Co282       O285   2.049   1_554  S
Co283       O285   2.039   1_654  S
Co284       O285   2.015       .  S
C286        C655   1.475       .  S
C287        C682   1.504   1_655  S
C288        C703   1.491   1_556  S
C289        C922   1.488   1_554  S
C290        C634   1.511       .  S
C290        C291   1.415       .  A
C290        C295   1.410       .  A
C291        C292   1.414       .  A
C291        H296   1.080       .  S
C292       C1258   1.507       .  S
C292        C293   1.411       .  A
C293        C294   1.407       .  A
C293        H297   1.080       .  S
C294        C643   1.510       .  S
C294        C295   1.408       .  A
C295        H298   1.080       .  S
C299        C646   1.499       .  S
C299        C300   1.413       .  A
C299        C304   1.413       .  A
C300        C301   1.405       .  A
C300        H305   1.082       .  S
C301        C619   1.481       .  S
C301        C302   1.396       .  A
C302        C303   1.396       .  A
C302        H306   1.084       .  S
C303        C610   1.480       .  S
C303        C304   1.406       .  A
C304        H307   1.083       .  S
C308        C679   1.514       .  S
C308        C309   1.423       .  A
C308        C313   1.417       .  A
C309        C310   1.421       .  A
C309        H314   1.080       .  S
C310       C1135   1.499       .  S
C310        C311   1.399       .  A
C311        C312   1.389       .  A
C311        H315   1.084       .  S
C312        C622   1.476       .  S
C312        C313   1.399       .  A
C313        H316   1.083       .  S
C317       C1039   1.501       .  S
C317        C318   1.411       .  A
C317        C322   1.419       .  A
C318        C319   1.397       .  A
C318        H323   1.083       .  S
C319        C607   1.479       .  S
C319        C320   1.391       .  A
C320        C321   1.403       .  A
C320        H324   1.083       .  S
C321        C871   1.498       .  S
C321        C322   1.417       .  A
C322        H325   1.082       .  S
C326        C598   1.484       .  S
C326        C327   1.402       .  A
C326        C331   1.404       .  A
C327        C328   1.402       .  A
C327        H332   1.083       .  S
C328        C583   1.479       .  S
C328        C329   1.405       .  A
C329        C330   1.411       .  A
C329        H333   1.083       .  S
C330        C571   1.499       .  S
C330        C331   1.407       .  A
C331        H334   1.081       .  S
C335       C1174   1.510       .  S
C335        C336   1.423       .  A
C335        C340   1.413       .  A
C336        C337   1.420       .  A
C336        H341   1.080       .  S
C337        C658   1.497       .  S
C337        C338   1.402       .  A
C338        C339   1.391       .  A
C338        H342   1.085       .  S
C339        C595   1.473       .  S
C339        C340   1.395       .  A
C340        H343   1.083       .  S
C344        C886   1.506       .  S
C344        C345   1.418       .  A
C344        C349   1.410       .  A
C345        C346   1.418       .  A
C345        H350   1.077       .  S
C346       C1051   1.504       .  S
C346        C347   1.410       .  A
C347        C348   1.394       .  A
C347        H351   1.083       .  S
C348        C586   1.481       .  S
C348        C349   1.393       .  A
C349        H352   1.082       .  S
C353       C1306   1.504       .  S
C353        C354   1.405       .  A
C353        C358   1.415       .  A
C354        C355   1.399       .  A
C354        H359   1.082       .  S
C355        C574   1.497       .  S
C355        C356   1.404       .  A
C356        C357   1.416       .  A
C356        H360   1.082       .  S
C357        C559   1.516       .  S
C357        C358   1.420       .  A
C358        H361   1.078       .  S
C362        C523   1.476       .  S
C362        C363   1.401       .  A
C362        C367   1.401       .  A
C363        C364   1.402       .  A
C363        H368   1.084       .  S
C364        C547   1.481       .  S
C364        C365   1.407       .  A
C365        C366   1.404       .  A
C365        H369   1.084       .  S
C366        C535   1.476       .  S
C366        C367   1.401       .  A
C367        H370   1.084       .  S
C371       C1318   1.511       .  S
C371        C372   1.415       .  A
C371        C376   1.418       .  A
C372        C373   1.401       .  A
C372        H377   1.078       .  S
C373        C550   1.475       .  S
C373        C374   1.391       .  A
C374        C375   1.398       .  A
C374        H378   1.082       .  S
C375        C511   1.490       .  S
C375        C376   1.409       .  A
C376        H379   1.080       .  S
C380        C670   1.502       .  S
C380        C381   1.417       .  A
C380        C385   1.410       .  A
C381        C382   1.419       .  A
C381        H386   1.083       .  S
C382       C1150   1.501       .  S
C382        C383   1.405       .  A
C383        C384   1.396       .  A
C383        H387   1.083       .  S
C384        C538   1.481       .  S
C384        C385   1.398       .  A
C385        H388   1.083       .  S
C389        C823   1.490       .  S
C389        C390   1.411       .  A
C389        C394   1.406       .  A
C390        C391   1.415       .  A
C390        H395   1.082       .  S
C391       C1090   1.491       .  S
C391        C392   1.405       .  A
C392        C393   1.396       .  A
C392        H396   1.084       .  S
C393        C526   1.473       .  S
C393        C394   1.394       .  A
C394        H397   1.084       .  S
C398        C487   1.488       .  S
C398        C399   1.406       .  A
C398        C403   1.407       .  A
C399        C400   1.402       .  A
C399        H404   1.084       .  S
C400        C499   1.480       .  S
C400        C401   1.404       .  A
C401        C402   1.407       .  A
C401        H405   1.084       .  S
C402        C475   1.486       .  S
C402        C403   1.406       .  A
C403        H406   1.084       .  S
C407       C1294   1.505       .  S
C407        C408   1.410       .  A
C407        C412   1.416       .  A
C408        C409   1.405       .  A
C408        H413   1.083       .  S
C409        C502   1.491       .  S
C409        C410   1.402       .  A
C410        C411   1.408       .  A
C410        H414   1.080       .  S
C411        C862   1.502       .  S
C411        C412   1.409       .  A
C412        H415   1.082       .  S
C416        C463   1.513       .  S
C416        C417   1.414       .  A
C416        C421   1.420       .  A
C417        C418   1.398       .  A
C417        H422   1.082       .  S
C418        C490   1.484       .  S
C418        C419   1.397       .  A
C419        C420   1.408       .  A
C419        H423   1.082       .  S
C420       C1219   1.507       .  S
C420        C421   1.417       .  A
C421        H424   1.077       .  S
C425       C1111   1.497       .  S
C425        C426   1.408       .  A
C425        C430   1.405       .  A
C426        C427   1.415       .  A
C426        H431   1.077       .  S
C427        C691   1.517       .  S
C427        C428   1.416       .  A
C428        C429   1.405       .  A
C428        H432   1.080       .  S
C429        C478   1.486       .  S
C429        C430   1.399       .  A
C430        H433   1.083       .  S
O434        C442   1.287   1_655  A
O434       Co454   2.060       .  S
O435        C443   1.267       .  A
O435       Co455   1.984       .  S
O436        C444   1.269       .  A
O436       Co456   1.953       .  S
O437        C445   1.258   1_545  A
O437       Co457   1.961       .  S
O438        C444   1.285   1_545  A
O438       Co455   2.051       .  S
O439        C445   1.269       .  A
O439       Co454   2.041       .  S
O440        C443   1.271   1_655  A
O440       Co457   1.989       .  S
O441        C442   1.272       .  A
O441       Co456   1.946       .  S
C442        C979   1.496   1_455  S
C443        C898   1.470       .  S
C444        C778   1.489       .  S
C445        C562   1.499       .  S
O446        C459   1.263   1_565  A
O446       Co454   1.951       .  S
O447        C460   1.255       .  A
O447       Co455   1.958   1_565  S
O448        C461   1.287   1_455  A
O448       Co456   2.067       .  S
O449        C462   1.265       .  A
O449       Co457   1.984       .  S
O450        C462   1.269   1_455  A
O450       Co455   1.987       .  S
O451        C461   1.271       .  A
O451       Co454   1.939       .  S
O452        C459   1.279       .  A
O452       Co457   2.045       .  S
O453        C460   1.265       .  A
O453       Co456   2.039       .  S
Co454       O458   2.030   1_665  S
Co455       O458   2.019       .  S
Co456       O458   2.043   1_565  S
Co457       O458   2.040   1_655  S
C459        C514   1.484   1_545  S
C460        C631   1.497       .  S
C461        C466   1.489       .  S
C462        C718   1.465       .  S
C463        C464   1.410       .  A
C463        C468   1.420   1_455  A
C464        C465   1.395       .  A
C464        H469   1.081       .  S
C465        C466   1.408   1_455  A
C465        O470   1.374       .  S
C466        C467   1.406       .  A
C467        C468   1.414       .  A
C467        H471   1.084       .  S
C468        O472   1.371       .  S
O470        H474   0.992       .  S
O472        H473   0.992       .  S
C475        C476   1.406       .  A
C475        C480   1.408       .  A
C476        C477   1.406       .  A
C476        H481   1.084       .  S
C477        C478   1.409       .  A
C477        O482   1.372       .  S
C478        C479   1.404       .  A
C479        C480   1.401       .  A
C479        H483   1.084       .  S
C480        O484   1.371       .  S
O482        H486   0.992       .  S
O484        H485   0.992       .  S
C487        C488   1.406       .  A
C487        C492   1.411       .  A
C488        C489   1.404       .  A
C488        H493   1.084       .  S
C489        C490   1.408       .  A
C489        O494   1.371       .  S
C490        C491   1.403       .  A
C491        C492   1.402       .  A
C491        H495   1.084       .  S
C492        O496   1.372       .  S
O494        H498   0.992       .  S
O496        H497   0.992       .  S
C499        C500   1.402       .  A
C499        C504   1.406       .  A
C500        C501   1.404       .  A
C500        H505   1.084       .  S
C501        C502   1.413       .  A
C501        O506   1.372       .  S
C502        C503   1.407       .  A
C503        C504   1.402       .  A
C503        H507   1.084       .  S
C504        O508   1.371       .  S
O506        H510   0.992       .  S
O508        H509   0.992       .  S
C511        C512   1.407       .  A
C511        C516   1.411       .  A
C512        C513   1.404   1_565  A
C512        H517   1.083   1_565  S
C513        C514   1.413   1_545  A
C513        O518   1.371       .  S
C514        C515   1.405       .  A
C515        C516   1.393       .  A
C515        H519   1.083       .  S
C516        O520   1.374       .  S
O518        H522   0.991       .  S
O520        H521   0.993       .  S
C523        C524   1.403       .  A
C523        C528   1.408       .  A
C524        C525   1.396       .  A
C524        H529   1.084       .  S
C525        C526   1.406       .  A
C525        O530   1.372       .  S
C526        C527   1.403       .  A
C527        C528   1.401       .  A
C527        H531   1.084       .  S
C528        O532   1.372       .  S
O530        H534   0.992       .  S
O532        H533   0.992       .  S
C535        C536   1.401       .  A
C535        C540   1.407       .  A
C536        C537   1.396       .  A
C536        H541   1.084       .  S
C537        C538   1.409       .  A
C537        O542   1.372       .  S
C538        C539   1.405       .  A
C539        C540   1.404       .  A
C539        H543   1.083       .  S
C540        O544   1.371       .  S
O542        H546   0.992       .  S
O544        H545   0.992       .  S
C547        C548   1.405       .  A
C547        C552   1.410       .  A
C548        C549   1.400       .  A
C548        H553   1.084       .  S
C549        C550   1.406       .  A
C549        O554   1.372       .  S
C550        C551   1.402       .  A
C551        C552   1.399       .  A
C551        H555   1.084       .  S
C552        O556   1.372       .  S
O554        H558   0.992       .  S
O556        H557   0.992       .  S
C559        C560   1.410       .  A
C559        C564   1.420       .  A
C560        C561   1.398       .  A
C560        H565   1.082       .  S
C561        C562   1.413   1_545  A
C561        O566   1.373       .  S
C562        C563   1.408       .  A
C563        C564   1.414   1_565  A
C563        H567   1.083       .  S
C564        O568   1.371   1_545  S
O566        H570   0.992       .  S
O568        H569   0.992       .  S
C571        C572   1.405       .  A
C571        C576   1.417       .  A
C572        C573   1.402       .  A
C572        H577   1.082       .  S
C573        C574   1.412       .  A
C573        O578   1.372       .  S
C574        C575   1.405       .  A
C575        C576   1.404       .  A
C575        H579   1.083       .  S
C576        O580   1.373       .  S
O578        H582   0.992       .  S
O580        H581   0.992       .  S
C583        C584   1.403       .  A
C583        C588   1.408       .  A
C584        C585   1.401       .  A
C584        H589   1.084       .  S
C585        C586   1.409       .  A
C585        O590   1.372       .  S
C586        C587   1.403       .  A
C587        C588   1.400       .  A
C587        H591   1.084       .  S
C588        O592   1.371       .  S
O590        H594   0.992       .  S
O592        H593   0.992       .  S
C595        C596   1.402       .  A
C595        C600   1.404       .  A
C596        C597   1.404       .  A
C596        H601   1.084       .  S
C597        C598   1.411       .  A
C597        O602   1.372       .  S
C598        C599   1.405       .  A
C599        C600   1.396       .  A
C599        H603   1.084       .  S
C600        O604   1.372       .  S
O602        H606   0.992       .  S
O604        H605   0.992       .  S
C607        C608   1.402       .  A
C607        C612   1.409       .  A
C608        C609   1.398       .  A
C608        H613   1.084       .  S
C609        C610   1.409       .  A
C609        O614   1.373       .  S
C610        C611   1.404       .  A
C611        C612   1.402       .  A
C611        H615   1.084       .  S
C612        O616   1.372       .  S
O614        H618   0.992       .  S
O616        H617   0.992       .  S
C619        C620   1.404       .  A
C619        C624   1.410       .  A
C620        C621   1.395       .  A
C620        H625   1.084       .  S
C621        C622   1.406       .  A
C621        O626   1.372       .  S
C622        C623   1.404       .  A
C623        C624   1.405       .  A
C623        H627   1.083       .  S
C624        O628   1.372       .  S
O626        H630   0.992       .  S
O628        H629   0.992       .  S
C631        C632   1.404   1_565  A
C631        C636   1.413       .  A
C632        C633   1.398       .  A
C632        H637   1.084       .  S
C633        C634   1.418       .  A
C633        O638   1.373       .  S
C634        C635   1.414   1_545  A
C635        C636   1.412       .  A
C635        H639   1.082       .  S
C636        O640   1.371       .  S
O638        H642   0.993       .  S
O640        H641   0.991       .  S
C643        C644   1.411       .  A
C643        C648   1.418       .  A
C644        C645   1.403       .  A
C644        H649   1.082       .  S
C645        C646   1.411       .  A
C645        O650   1.373       .  S
C646        C647   1.407       .  A
C647        C648   1.405       .  A
C647        H651   1.083       .  S
C648        O652   1.370       .  S
O650        H654   0.992       .  S
O652        H653   0.992       .  S
C655        C656   1.408       .  A
C655        C660   1.404       .  A
C656        C657   1.413       .  A
C656        H661   1.084   1_655  S
C657        C658   1.412       .  A
C657        O662   1.372   1_655  S
C658        C659   1.408       .  A
C659        C660   1.395       .  A
C659        H663   1.084       .  S
C660        O664   1.372       .  S
O662        H666   0.992       .  S
O664        H665   0.992       .  S
C667        C668   1.407   1_455  A
C667        C672   1.414       .  A
C668        C669   1.396       .  A
C668        H673   1.083       .  S
C669        C670   1.411       .  A
C669        O674   1.374       .  S
C670        C671   1.412   1_655  A
C671        C672   1.416       .  A
C671        H675   1.083       .  S
C672        O676   1.371       .  S
O674        H678   0.992       .  S
O676        H677   0.992       .  S
C679        C680   1.406       .  A
C679        C684   1.419       .  A
C680        C681   1.398       .  A
C680        H685   1.083       .  S
C681        C682   1.416       .  A
C681        O686   1.373       .  S
C682        C683   1.409   1_455  A
C683        C684   1.418   1_655  A
C683        H687   1.083       .  S
C684        O688   1.370   1_455  S
O686        H690   0.992       .  S
O688        H689   0.992       .  S
C691        C692   1.417       .  A
C691        C696   1.421       .  A
C692        C693   1.407       .  A
C692        H697   1.081       .  S
C693        C694   1.407   1_554  A
C693        O698   1.372       .  S
C694        C695   1.401       .  A
C695        C696   1.397   1_556  A
C695        H699   1.083       .  S
C696        O700   1.368       .  S
O698        H702   0.992       .  S
O700        H701   0.992   1_554  S
C703        C704   1.409   1_554  A
C703        C708   1.409       .  A
C704        C705   1.411   1_556  A
C704        H709   1.084       .  S
C705        C706   1.415       .  A
C705        O710   1.370   1_554  S
C706        C707   1.411       .  A
C707        C708   1.392       .  A
C707        H711   1.081       .  S
C708        O712   1.372       .  S
O710        H714   0.991       .  S
O712        H713   0.992       .  S
C715        C716   1.404       .  A
C715        C720   1.410       .  A
C716        C717   1.402       .  A
C716        H721   1.084   1_655  S
C717        C718   1.408       .  A
C717        O722   1.372   1_655  S
C718        C719   1.400       .  A
C719        C720   1.398       .  A
C719        H723   1.084       .  S
C720        O724   1.372       .  S
O722        H726   0.991       .  S
O724        H725   0.992       .  S
C727        C728   1.403       .  A
C727        C732   1.405       .  A
C728        C729   1.403       .  A
C728        H733   1.083       .  S
C729        C730   1.408       .  A
C729        O734   1.371       .  S
C730        C731   1.403       .  A
C731        C732   1.394       .  A
C731        H735   1.084       .  S
C732        O736   1.372       .  S
O734        H738   0.992       .  S
O736        H737   0.992       .  S
C739        C740   1.403       .  A
C739        C744   1.408       .  A
C740        C741   1.397       .  A
C740        H745   1.084       .  S
C741        C742   1.407       .  A
C741        O746   1.372       .  S
C742        C743   1.403       .  A
C743        C744   1.398       .  A
C743        H747   1.084       .  S
C744        O748   1.372       .  S
O746        H750   0.992       .  S
O748        H749   0.992       .  S
C751        C752   1.402       .  A
C751        C756   1.410       .  A
C752        C753   1.398       .  A
C752        H757   1.084       .  S
C753        C754   1.407       .  A
C753        O758   1.372       .  S
C754        C755   1.402       .  A
C755        C756   1.402       .  A
C755        H759   1.083       .  S
C756        O760   1.372       .  S
O758        H762   0.992       .  S
O760        H761   0.992       .  S
C763        C764   1.406       .  A
C763        C768   1.414       .  A
C764        C765   1.410       .  A
C764        H769   1.083       .  S
C765        C766   1.412       .  A
C765        O770   1.372   1_455  S
C766        C767   1.399       .  A
C767        C768   1.396       .  A
C767        H771   1.085       .  S
C768        O772   1.374       .  S
O770        H774   0.992       .  S
O772        H773   0.992       .  S
C775        C776   1.410       .  A
C775        C780   1.413       .  A
C776        C777   1.403   1_565  A
C776        H781   1.083       .  S
C777        C778   1.412   1_545  A
C777        O782   1.372       .  S
C778        C779   1.407       .  A
C779        C780   1.397       .  A
C779        H783   1.083       .  S
C780        O784   1.371       .  S
O782        H786   0.991       .  S
O784        H785   0.992       .  S
C787        C788   1.403       .  A
C787        C792   1.412       .  A
C788        C789   1.397       .  A
C788        H793   1.084       .  S
C789        C790   1.407       .  A
C789        O794   1.372       .  S
C790        C791   1.401       .  A
C791        C792   1.402       .  A
C791        H795   1.084       .  S
C792        O796   1.372       .  S
O794        H798   0.992       .  S
O796        H797   0.992       .  S
C799        C800   1.407       .  A
C799        C804   1.406       .  A
C800        C801   1.402       .  A
C800        H805   1.084       .  S
C801        C802   1.406       .  A
C801        O806   1.372       .  S
C802        C803   1.405       .  A
C803        C804   1.399       .  A
C803        H807   1.084       .  S
C804        O808   1.372       .  S
O806        H810   0.992       .  S
O808        H809   0.992       .  S
C811        C812   1.410       .  A
C811        C816   1.416       .  A
C812        C813   1.397       .  A
C812        H817   1.081       .  S
C813        C814   1.412       .  A
C813        O818   1.373       .  S
C814        C815   1.405       .  A
C815        C816   1.400       .  A
C815        H819   1.082       .  S
C816        O820   1.372       .  S
O818        H822   0.992       .  S
O820        H821   0.992       .  S
C823        C824   1.410       .  A
C823        C828   1.408       .  A
C824        C825   1.412   1_554  A
C824        H829   1.083   1_554  S
C825        C826   1.411   1_556  A
C825        O830   1.370       .  S
C826        C827   1.407       .  A
C827        C828   1.389       .  A
C827        H831   1.083       .  S
C828        O832   1.375       .  S
O830        H834   0.992       .  S
O832        H833   0.992       .  S
C835        C836   1.407       .  A
C835        C840   1.408       .  A
C836        C837   1.399   1_556  A
C836        H841   1.083       .  S
C837        C838   1.409   1_554  A
C837        O842   1.373       .  S
C838        C839   1.405       .  A
C839        C840   1.391       .  A
C839        H843   1.084       .  S
C840        O844   1.372       .  S
O842        H846   0.992       .  S
O844        H845   0.992       .  S
C847        C848   1.402       .  A
C847        C852   1.415   1_545  A
C848        C849   1.393       .  A
C848        H853   1.084       .  S
C849        C850   1.410       .  A
C849        O854   1.374       .  S
C850        C851   1.410       .  A
C851        C852   1.415   1_545  A
C851        H855   1.083   1_545  S
C852        O856   1.372       .  S
O854        H858   0.992       .  S
O856        H857   0.992       .  S
C859        C860   1.408       .  A
C859        C864   1.410   1_565  A
C860        C861   1.392       .  A
C860        H865   1.084       .  S
C861        C862   1.411       .  A
C861        O866   1.372       .  S
C862        C863   1.414       .  A
C863        C864   1.412   1_565  A
C863        H867   1.083   1_565  S
C864        O868   1.371       .  S
O866        H870   0.992       .  S
O868        H869   0.991       .  S
C871        C872   1.408       .  A
C871        C876   1.416       .  A
C872        C873   1.412   1_554  A
C872        H877   1.083   1_554  S
C873        C874   1.416   1_556  A
C873        O878   1.371       .  S
C874        C875   1.401       .  A
C875        C876   1.389       .  A
C875        H879   1.083       .  S
C876        O880   1.373       .  S
O878        H882   0.991       .  S
O880        H881   0.992       .  S
C883        C884   1.408   1_556  A
C883        C888   1.410       .  A
C884        C885   1.409   1_554  A
C884        H889   1.084       .  S
C885        C886   1.418       .  A
C885        O890   1.370   1_556  S
C886        C887   1.409       .  A
C887        C888   1.390       .  A
C887        H891   1.082       .  S
C888        O892   1.373       .  S
O890        H894   0.991       .  S
O892        H893   0.992       .  S
C895        C896   1.405       .  A
C895        C900   1.413       .  A
C896        C897   1.408       .  A
C896        H901   1.083       .  S
C897        C898   1.411       .  A
C897        O902   1.371   1_455  S
C898        C899   1.399       .  A
C899        C900   1.396       .  A
C899        H903   1.084       .  S
C900        O904   1.373       .  S
O902        H906   0.992       .  S
O904        H905   0.992       .  S
C907        C908   1.395       .  A
C907        C912   1.410       .  A
C908        C909   1.394       .  A
C908        H913   1.084       .  S
C909        C910   1.419       .  A
C909        O914   1.371       .  S
C910        C911   1.408       .  A
C911        C912   1.409       .  A
C911        H915   1.083       .  S
C912        O916   1.372   1_545  S
O914        H918   0.992       .  S
O916        H917   0.992       .  S
C919        C920   1.406       .  A
C919        C924   1.417       .  A
C920        C921   1.391       .  A
C920        H925   1.082       .  S
C921        C922   1.412       .  A
C921        O926   1.373       .  S
C922        C923   1.407   1_556  A
C923        C924   1.411   1_554  A
C923        H927   1.083       .  S
C924        O928   1.370   1_556  S
O926        H930   0.992       .  S
O928        H929   0.992       .  S
C931        C932   1.403       .  A
C931        C936   1.410       .  A
C932        C933   1.400       .  A
C932        H937   1.084       .  S
C933        C934   1.408       .  A
C933        O938   1.372       .  S
C934        C935   1.399       .  A
C935        C936   1.396       .  A
C935        H939   1.084       .  S
C936        O940   1.372       .  S
O938        H942   0.992       .  S
O940        H941   0.992       .  S
C943        C944   1.405       .  A
C943        C948   1.414       .  A
C944        C945   1.399       .  A
C944        H949   1.082       .  S
C945        C946   1.414       .  A
C945        O950   1.372       .  S
C946        C947   1.406       .  A
C947        C948   1.401       .  A
C947        H951   1.083       .  S
C948        O952   1.373       .  S
O950        H954   0.993       .  S
O952        H953   0.992       .  S
C955        C956   1.405       .  A
C955        C960   1.411       .  A
C956        C957   1.403       .  A
C956        H961   1.083       .  S
C957        C958   1.408       .  A
C957        O962   1.372       .  S
C958        C959   1.400       .  A
C959        C960   1.398       .  A
C959        H963   1.084       .  S
C960        O964   1.372       .  S
O962        H966   0.991       .  S
O964        H965   0.992       .  S
C967        C968   1.412       .  A
C967        C972   1.413       .  A
C968        C969   1.410   1_556  A
C968        H973   1.083   1_556  S
C969        C970   1.412   1_554  A
C969        O974   1.371       .  S
C970        C971   1.406       .  A
C971        C972   1.395       .  A
C971        H975   1.084       .  S
C972        O976   1.371       .  S
O974        H978   0.992       .  S
O976        H977   0.992       .  S
C979        C980   1.406       .  A
C979        C984   1.415   1_655  A
C980        C981   1.396       .  A
C980        H985   1.083       .  S
C981        C982   1.412       .  A
C981        O986   1.374       .  S
C982        C983   1.411       .  A
C983        C984   1.415   1_655  A
C983        H987   1.083   1_655  S
C984        O988   1.371       .  S
O986        H990   0.992       .  S
O988        H989   0.992       .  S
C991        C992   1.406       .  A
C991        C996   1.415       .  A
C992        C993   1.407       .  A
C992        H997   1.082       .  S
C993        C994   1.419       .  A
C993        O998   1.372       .  S
C994        C995   1.407       .  A
C995        C996   1.400       .  A
C995        H999   1.082       .  S
C996       O1000   1.371       .  S
O998       H1002   0.993       .  S
O1000      H1001   0.992       .  S
C1003      C1004   1.405       .  A
C1003      C1008   1.408       .  A
C1004      C1005   1.403       .  A
C1004      H1009   1.084       .  S
C1005      C1006   1.409       .  A
C1005      O1010   1.372       .  S
C1006      C1007   1.405       .  A
C1007      C1008   1.401       .  A
C1007      H1011   1.084       .  S
C1008      O1012   1.372       .  S
O1010      H1014   0.992       .  S
O1012      H1013   0.992       .  S
C1015      C1016   1.409       .  A
C1015      C1020   1.401       .  A
C1016      C1017   1.410       .  A
C1016      H1021   1.084   1_565  S
C1017      C1018   1.412       .  A
C1017      O1022   1.371   1_565  S
C1018      C1019   1.412       .  A
C1019      C1020   1.395       .  A
C1019      H1023   1.083       .  S
C1020      O1024   1.372       .  S
O1022      H1026   0.991       .  S
O1024      H1025   0.991       .  S
C1027      C1028   1.403       .  A
C1027      C1032   1.405       .  A
C1028      C1029   1.402       .  A
C1028      H1033   1.084       .  S
C1029      C1030   1.408       .  A
C1029      O1034   1.371       .  S
C1030      C1031   1.405       .  A
C1031      C1032   1.398       .  A
C1031      H1035   1.084       .  S
C1032      O1036   1.372       .  S
O1034      H1038   0.992       .  S
O1036      H1037   0.992       .  S
C1039      C1040   1.410       .  A
C1039      C1044   1.414       .  A
C1040      C1041   1.412       .  A
C1040      H1045   1.083       .  S
C1041      C1042   1.414       .  A
C1041      O1046   1.371       .  S
C1042      C1043   1.405       .  A
C1043      C1044   1.394       .  A
C1043      H1047   1.084       .  S
C1044      O1048   1.372       .  S
O1046      H1050   0.992       .  S
O1048      H1049   0.992       .  S
C1051      C1052   1.408       .  A
C1051      C1056   1.418       .  A
C1052      C1053   1.389       .  A
C1052      H1057   1.082       .  S
C1053      C1054   1.408       .  A
C1053      O1058   1.372       .  S
C1054      C1055   1.408       .  A
C1055      C1056   1.411       .  A
C1055      H1059   1.083       .  S
C1056      O1060   1.371       .  S
O1058      H1062   0.991       .  S
O1060      H1061   0.992       .  S
C1063      C1064   1.411       .  A
C1063      C1068   1.414       .  A
C1064      C1065   1.395       .  A
C1064      H1069   1.081       .  S
C1065      C1066   1.409       .  A
C1065      O1070   1.374       .  S
C1066      C1067   1.410       .  A
C1067      C1068   1.411       .  A
C1067      H1071   1.082       .  S
C1068      O1072   1.373       .  S
O1070      H1074   0.991       .  S
O1072      H1073   0.992       .  S
C1075      C1076   1.402       .  A
C1075      C1080   1.407       .  A
C1076      C1077   1.410       .  A
C1076      H1081   1.084       .  S
C1077      C1078   1.423       .  A
C1077      O1082   1.373       .  S
C1078      C1079   1.414       .  A
C1079      C1080   1.402       .  A
C1079      H1083   1.078       .  S
C1080      O1084   1.369       .  S
O1082      H1086   0.993       .  S
O1084      H1085   0.990       .  S
C1087      C1088   1.404       .  A
C1087      C1092   1.403       .  A
C1088      C1089   1.408       .  A
C1088      H1093   1.084       .  S
C1089      C1090   1.412       .  A
C1089      O1094   1.372       .  S
C1090      C1091   1.407       .  A
C1091      C1092   1.396       .  A
C1091      H1095   1.083       .  S
C1092      O1096   1.372       .  S
O1094      H1098   0.988       .  S
O1096      H1097   0.992       .  S
C1099      C1100   1.402       .  A
C1099      C1104   1.402       .  A
C1100      C1101   1.387       .  A
C1100      H1105   1.084   1_556  S
C1101      C1102   1.416       .  A
C1101      O1106   1.372       .  S
C1102      C1103   1.416       .  A
C1103      C1104   1.406       .  A
C1103      H1107   1.082       .  S
C1104      O1108   1.370       .  S
O1106      H1110   0.992       .  S
O1108      H1109   0.991       .  S
C1111      C1112   1.403       .  A
C1111      C1116   1.416       .  A
C1112      C1113   1.397       .  A
C1112      H1117   1.083       .  S
C1113      C1114   1.416       .  A
C1113      O1118   1.372       .  S
C1114      C1115   1.407       .  A
C1115      C1116   1.406       .  A
C1115      H1119   1.084       .  S
C1116      O1120   1.371       .  S
O1118      H1122   0.993       .  S
O1120      H1121   0.992       .  S
C1123      C1124   1.409       .  A
C1123      C1128   1.412       .  A
C1124      C1125   1.411       .  A
C1124      H1129   1.083       .  S
C1125      C1126   1.413       .  A
C1125      O1130   1.372       .  S
C1126      C1127   1.405       .  A
C1127      C1128   1.391       .  A
C1127      H1131   1.083       .  S
C1128      O1132   1.374       .  S
O1130      H1134   0.992       .  S
O1132      H1133   0.992       .  S
C1135      C1136   1.411       .  A
C1135      C1140   1.412       .  A
C1136      C1137   1.394       .  A
C1136      H1141   1.083       .  S
C1137      C1138   1.403       .  A
C1137      O1142   1.372       .  S
C1138      C1139   1.407       .  A
C1139      C1140   1.411       .  A
C1139      H1143   1.084       .  S
C1140      O1144   1.372       .  S
O1142      H1146   0.992       .  S
O1144      H1145   0.992       .  S
C1147      C1148   1.399       .  A
C1147      C1152   1.409       .  A
C1148      C1149   1.396       .  A
C1148      H1153   1.085       .  S
C1149      C1150   1.418       .  A
C1149      O1154   1.372       .  S
C1150      C1151   1.409       .  A
C1151      C1152   1.408       .  A
C1151      H1155   1.083       .  S
C1152      O1156   1.371       .  S
O1154      H1158   0.992       .  S
O1156      H1157   0.991       .  S
C1159      C1160   1.409       .  A
C1159      C1164   1.421       .  A
C1160      C1161   1.391       .  A
C1160      H1165   1.081       .  S
C1161      C1162   1.410       .  A
C1161      O1166   1.373       .  S
C1162      C1163   1.408       .  A
C1163      C1164   1.416       .  A
C1163      H1167   1.083       .  S
C1164      O1168   1.370       .  S
O1166      H1170   0.992       .  S
O1168      H1169   0.992       .  S
C1171      C1172   1.409       .  A
C1171      C1176   1.414       .  A
C1172      C1173   1.417       .  A
C1172      H1177   1.083       .  S
C1173      C1174   1.417       .  A
C1173      O1178   1.371       .  S
C1174      C1175   1.407       .  A
C1175      C1176   1.395       .  A
C1175      H1179   1.083       .  S
C1176      O1180   1.372       .  S
O1178      H1182   0.992       .  S
O1180      H1181   0.992       .  S
C1183      C1184   1.410       .  A
C1183      C1188   1.411       .  A
C1184      C1185   1.415       .  A
C1184      H1189   1.083       .  S
C1185      C1186   1.420       .  A
C1185      O1190   1.370       .  S
C1186      C1187   1.411       .  A
C1187      C1188   1.391       .  A
C1187      H1191   1.080       .  S
C1188      O1192   1.372       .  S
O1190      H1194   0.991       .  S
O1192      H1193   0.992       .  S
C1195      C1196   1.413       .  A
C1195      C1200   1.421       .  A
C1196      C1197   1.403       .  A
C1196      H1201   1.081       .  S
C1197      C1198   1.407       .  A
C1197      O1202   1.370       .  S
C1198      C1199   1.403       .  A
C1199      C1200   1.406       .  A
C1199      H1203   1.084       .  S
C1200      O1204   1.373       .  S
O1202      H1206   0.992       .  S
O1204      H1205   0.993       .  S
C1207      C1208   1.407       .  A
C1207      C1212   1.411       .  A
C1208      C1209   1.412       .  A
C1208      H1213   1.084       .  S
C1209      C1210   1.419       .  A
C1209      O1214   1.370       .  S
C1210      C1211   1.412       .  A
C1211      C1212   1.395       .  A
C1211      H1215   1.080       .  S
C1212      O1216   1.372       .  S
O1214      H1218   0.993       .  S
O1216      H1217   0.992       .  S
C1219      C1220   1.413       .  A
C1219      C1224   1.415       .  A
C1220      C1221   1.414       .  A
C1220      H1225   1.083       .  S
C1221      C1222   1.411       .  A
C1221      O1226   1.371       .  S
C1222      C1223   1.404       .  A
C1223      C1224   1.397       .  A
C1223      H1227   1.084       .  S
C1224      O1228   1.374       .  S
O1226      H1230   0.992       .  S
O1228      H1229   0.992       .  S
C1231      C1232   1.408       .  A
C1231      C1236   1.411       .  A
C1232      C1233   1.412       .  A
C1232      H1237   1.083       .  S
C1233      C1234   1.417       .  A
C1233      O1238   1.370       .  S
C1234      C1235   1.408       .  A
C1235      C1236   1.395       .  A
C1235      H1239   1.083       .  S
C1236      O1240   1.373       .  S
O1238      H1242   0.992       .  S
O1240      H1241   0.992       .  S
C1243      C1244   1.406       .  A
C1243      C1248   1.413       .  A
C1244      C1245   1.396       .  A
C1244      H1249   1.084       .  S
C1245      C1246   1.415       .  A
C1245      O1250   1.374       .  S
C1246      C1247   1.415       .  A
C1247      C1248   1.419       .  A
C1247      H1251   1.082       .  S
C1248      O1252   1.371       .  S
O1250      H1254   0.993       .  S
O1252      H1253   0.992       .  S
C1255      C1256   1.404       .  A
C1255      C1260   1.410       .  A
C1256      C1257   1.396       .  A
C1256      H1261   1.084       .  S
C1257      C1258   1.415       .  A
C1257      O1262   1.373       .  S
C1258      C1259   1.413       .  A
C1259      C1260   1.414       .  A
C1259      H1263   1.083       .  S
C1260      O1264   1.371       .  S
O1262      H1266   0.992       .  S
O1264      H1265   0.991       .  S
C1267      C1268   1.403       .  A
C1267      C1272   1.405       .  A
C1268      C1269   1.398       .  A
C1268      H1273   1.082       .  S
C1269      C1270   1.418       .  A
C1269      O1274   1.369       .  S
C1270      C1271   1.416       .  A
C1271      C1272   1.404       .  A
C1271      H1275   1.081       .  S
C1272      O1276   1.372       .  S
O1274      H1278   0.992       .  S
O1276      H1277   0.992       .  S
C1279      C1280   1.402       .  A
C1279      C1284   1.411       .  A
C1280      C1281   1.393       .  A
C1280      H1285   1.085       .  S
C1281      C1282   1.411       .  A
C1281      O1286   1.373       .  S
C1282      C1283   1.406       .  A
C1283      C1284   1.409       .  A
C1283      H1287   1.083       .  S
C1284      O1288   1.371       .  S
O1286      H1290   0.992       .  S
O1288      H1289   0.992       .  S
C1291      C1292   1.406       .  A
C1291      C1296   1.404       .  A
C1292      C1293   1.393       .  A
C1292      H1297   1.083       .  S
C1293      C1294   1.413       .  A
C1293      O1298   1.372       .  S
C1294      C1295   1.418       .  A
C1295      C1296   1.413       .  A
C1295      H1299   1.082       .  S
C1296      O1300   1.370       .  S
O1298      H1302   0.992       .  S
O1300      H1301   0.992       .  S
C1303      C1304   1.403       .  A
C1303      C1308   1.412       .  A
C1304      C1305   1.394       .  A
C1304      H1309   1.083       .  S
C1305      C1306   1.415       .  A
C1305      O1310   1.373       .  S
C1306      C1307   1.412       .  A
C1307      C1308   1.414       .  A
C1307      H1311   1.083       .  S
C1308      O1312   1.371       .  S
O1310      H1314   0.992       .  S
O1312      H1313   0.991       .  S
C1315      C1316   1.402       .  A
C1315      C1320   1.410       .  A
C1316      C1317   1.408       .  A
C1316      H1321   1.084       .  S
C1317      C1318   1.420       .  A
C1317      O1322   1.373       .  S
C1318      C1319   1.411       .  A
C1319      C1320   1.398       .  A
C1319      H1323   1.081       .  S
C1320      O1324   1.370       .  S
O1322      H1326   0.992       .  S
O1324      H1325   0.991       .  S
