geometry optimzed in LAMMPS
_audit_creation_date              2020-11-30 
_audit_creation_method            'lammps2cif' 
_symmetry_space_group_name_H-M    'P1' 
_symmetry_Int_Tables_number       1 
_symmetry_cell_setting            triclinic 
loop_ 
_symmetry_equiv_pos_as_xyz 
  x,y,z 
_cell_length_a                    40.53768544378104 
_cell_length_b                    40.47004035290991 
_cell_length_c                    40.27911803197877 
_cell_angle_alpha                 89.8384194970093 
_cell_angle_beta                  89.6607150796172 
_cell_angle_gamma                 89.90521340099241 
loop_ 
_atom_site_label 
_atom_site_type_symbol 
_atom_site_fract_x 
_atom_site_fract_y 
_atom_site_fract_z 
_atom_site_charge 
C1          C  0.25582696  0.28354403  0.49907686     0.01380
C2          C  0.27999494  0.25929962  0.49753172     0.01380
C3          C  0.27923982  0.46638064  0.30018147     0.01380
C4          C  0.25894693  0.46441764  0.32787547     0.01380
C5          C  0.46308836  0.28340696  0.29728938     0.01380
C6          C  0.46122695  0.25819192  0.32113168     0.01380
C7          C  0.17141391  0.14965043  0.99116150     0.01380
C8          C  0.14672687  0.17374932  0.99351377     0.01380
C9          C  0.96434954  0.14210212  0.20665398     0.01380
C10         C  0.96574145  0.16881469  0.18375868     0.01380
C11         C  0.14600304  0.96387217  0.20220675     0.01380
C12         C  0.17188011  0.96161472  0.17883431     0.01380
C13         C  0.65876460  0.27830430  0.49569450     0.01380
C14         C  0.63269754  0.25725776  0.50298359     0.01380
C15         C  0.29743722  0.66035299  0.50758331     0.01380
C16         C  0.26900469  0.64130176  0.50931781     0.01380
C17         C  0.45876692  0.65412812  0.32958225     0.01380
C18         C  0.46180097  0.62660692  0.30842298     0.01380
C19         C  0.67158779  0.46425612  0.32052804     0.01380
C20         C  0.65064246  0.46420443  0.29369031     0.01380
C21         C  0.45727443  0.26344659  0.67181086     0.01380
C22         C  0.46013228  0.28658920  0.69703068     0.01380
C23         C  0.28337218  0.46020818  0.70333181     0.01380
C24         C  0.25993167  0.46161605  0.67883552     0.01380
C25         C  0.15410867  0.74307728  0.00034902     0.01380
C26         C  0.18006536  0.76673912  0.99990104     0.01380
C27         C  0.78423740  0.16394185  0.99723492     0.01380
C28         C  0.76199095  0.13710371  0.99894932     0.01380
C29         C  0.96215050  0.16659256  0.81185188     0.01380
C30         C  0.96458911  0.14134891  0.78739240     0.01380
C31         C  0.18020739  0.95598483  0.81533908     0.01380
C32         C  0.15513808  0.95412005  0.79147537     0.01380
C33         C  0.96003360  0.77369974  0.21569808     0.01380
C34         C  0.96110006  0.74570247  0.19435678     0.01380
C35         C  0.77843930  0.96057235  0.19567520     0.01380
C36         C  0.75724425  0.95775903  0.16814324     0.01380
N37         N  0.28646882  0.50587509  0.96542799    -0.05300
N38         N  0.30365548  0.50755295  0.93763675    -0.57420
N39         N  0.26050192  0.52731410  0.04154755    -0.04980
N40         N  0.26016084  0.54604587  0.06820576    -0.59550
N41         N  0.28404330  0.50510821  0.04282773    -0.04580
N42         N  0.30026782  0.50811062  0.07102425    -0.57400
N43         N  0.26269507  0.52786531  0.96535039    -0.04260
N44         N  0.26320962  0.54524438  0.93760600    -0.59900
C45         C  0.28908277  0.53245743  0.92074381     0.96880
C46         C  0.28525102  0.53407184  0.08628149     0.96650
N47         N  0.16005441  0.50456074  0.03954919    -0.05490
N48         N  0.13535154  0.51691128  0.05755302    -0.58000
N49         N  0.18756028  0.52580043  0.96545220    -0.03610
N50         N  0.18273569  0.55125871  0.94620355    -0.59250
N51         N  0.16267216  0.50509404  0.96422367    -0.05520
N52         N  0.13994101  0.51701449  0.94391373    -0.58270
N53         N  0.18509282  0.52533931  0.04018812    -0.03250
N54         N  0.17856678  0.55085522  0.05915734    -0.59340
Mn55       Mn  0.22408025  0.52685464  0.00314491     1.18440
C56         C  0.14787429  0.54541334  0.07031820     0.98960
C57         C  0.15330450  0.54579954  0.93250534     0.99620
N58         N  0.28575244  0.42790606  0.03946382    -0.05540
N59         N  0.30372868  0.42522028  0.06625933    -0.61840
N60         N  0.26513003  0.40699268  0.96293744    -0.04340
N61         N  0.26904891  0.38811060  0.93673301    -0.62520
N62         N  0.28840426  0.42944064  0.96399618    -0.05040
N63         N  0.30863159  0.42611746  0.93836401    -0.62110
N64         N  0.26275632  0.40514749  0.03909975    -0.03940
N65         N  0.26444643  0.38671991  0.06606057    -0.62800
Mn66       Mn  0.28763303  0.46714489  0.00307878     1.10660
C67         C  0.29036104  0.39943776  0.08273857     1.00180
C68         C  0.29645307  0.39986788  0.92152993     1.00260
N69         N  0.16240686  0.42491749  0.96235299    -0.05050
N70         N  0.13789845  0.41323997  0.94419832    -0.60420
N71         N  0.18595520  0.40120515  0.03646344    -0.04370
N72         N  0.17938396  0.37356352  0.05217924    -0.57150
N73         N  0.16032985  0.42133574  0.03714104    -0.05680
N74         N  0.13544968  0.40659271  0.05309825    -0.59990
N75         N  0.18735198  0.40397505  0.96180807    -0.04670
N76         N  0.18031933  0.37824880  0.94324938    -0.57180
Mn77       Mn  0.16003184  0.46412471  0.00107569     1.20190
Mn78       Mn  0.22563670  0.40394003  0.00001005     1.10090
Cl79       Cl  0.22412305  0.46536691  0.00200835    -0.85150
C80         C  0.14959479  0.38420450  0.93198760     0.97190
C81         C  0.14816203  0.37688567  0.06296758     0.96980
N82         N  0.63513784  0.42021752  0.96185964    -0.05300
N83         N  0.61458448  0.41540555  0.93728490    -0.57420
N84         N  0.65988558  0.39890450  0.03679787    -0.04980
N85         N  0.65666330  0.37816681  0.06176286    -0.59550
N86         N  0.63666101  0.42150492  0.03752548    -0.04580
N87         N  0.61730512  0.41668206  0.06357047    -0.57400
N88         N  0.65826821  0.39758556  0.96170158    -0.04260
N89         N  0.65398109  0.37697811  0.93691436    -0.59900
C90         C  0.62637602  0.38815152  0.92188848     0.96880
C91         C  0.62996081  0.38926788  0.07842762     0.96650
N92         N  0.76147928  0.41928034  0.03404835    -0.05490
N93         N  0.78624389  0.40773013  0.05207733    -0.58000
N94         N  0.73463962  0.39628385  0.95962505    -0.03610
N95         N  0.73991010  0.36986679  0.94147317    -0.59250
N96         N  0.76024764  0.41630016  0.95879304    -0.05520
N97         N  0.78405620  0.40259129  0.94058833    -0.58270
N98         N  0.73665570  0.39830082  0.03521985    -0.03250
N99         N  0.74363941  0.37305783  0.05455811    -0.59340
Mn100      Mn  0.69733421  0.39750324  0.99834017     1.18440
C101        C  0.77433924  0.37917976  0.06534308     0.98960
C102        C  0.77049407  0.37395236  0.92929072     0.99620
N103        N  0.63690083  0.49875936  0.03532545    -0.05540
N104        N  0.61818849  0.50254611  0.06188432    -0.61840
N105        N  0.66018612  0.51975228  0.95829725    -0.04340
N106        N  0.65968359  0.53822313  0.93143364    -0.62520
N107        N  0.63651350  0.49769503  0.95799971    -0.05040
N108        N  0.61926310  0.50079766  0.93031228    -0.62110
N109        N  0.66018166  0.52121001  0.03446752    -0.03940
N110        N  0.65765064  0.54103755  0.06029039    -0.62800
Mn111      Mn  0.63486356  0.45971566  0.99817987     1.10660
C112        C  0.63123479  0.52916978  0.07717026     1.00180
C113        C  0.63396380  0.52655097  0.91417011     1.00260
N114        N  0.76089738  0.49831642  0.95670255    -0.05050
N115        N  0.78544396  0.51059418  0.93847332    -0.60420
N116        N  0.73694578  0.52196111  0.03153365    -0.04370
N117        N  0.74479228  0.54973738  0.04631943    -0.57150
N118        N  0.76197388  0.50104029  0.03123707    -0.05680
N119        N  0.78760115  0.51503693  0.04586623    -0.59990
N120        N  0.73611362  0.51943958  0.95714714    -0.04670
N121        N  0.74289206  0.54538165  0.93884573    -0.57180
Mn122      Mn  0.76230807  0.45860944  0.99517507     1.20190
Mn123      Mn  0.69803860  0.52071876  0.99554663     1.10090
Cl124      Cl  0.69833270  0.45911363  0.99686691    -0.85150
C125        C  0.77343179  0.53985571  0.92690339     0.97190
C126        C  0.77608454  0.54510458  0.05554619     0.96980
C127        C  0.82777551  0.24869408  0.88550304     0.01380
C128        C  0.85606164  0.25069004  0.86489297     0.01380
C129        C  0.85917069  0.66426544  0.13298986     0.01380
C130        C  0.83757020  0.66168816  0.10581149     0.01380
N131        N  0.92584721  0.42511209  0.80143902    -0.05300
N132        N  0.90877170  0.41185209  0.82685032    -0.57420
N133        N  0.00035157  0.40740145  0.77327210    -0.04980
N134        N  0.01918779  0.38213792  0.78112114    -0.59550
N135        N  0.00074199  0.42992269  0.79691453    -0.04580
N136        N  0.01925220  0.41910027  0.82185449    -0.57400
N137        N  0.92593717  0.40394161  0.77660562    -0.04260
N138        N  0.90919387  0.37727524  0.78405041    -0.59900
C139        C  0.89796383  0.38192178  0.81505706     0.96880
C140        C  0.03146103  0.38956915  0.81109174     0.96650
N141        N  0.99684333  0.42469240  0.67222367    -0.05490
N142        N  0.02338942  0.42243295  0.65353278    -0.58000
N143        N  0.92152045  0.40168991  0.69870937    -0.03610
N144        N  0.89436084  0.38361401  0.69744733    -0.59250
N145        N  0.92230006  0.42233599  0.67361139    -0.05520
N146        N  0.89637417  0.41870415  0.65475887    -0.58270
N147        N  0.99776289  0.40329085  0.69659199    -0.03250
N148        N  0.02493990  0.38558421  0.69496044    -0.59340
Mn149      Mn  0.96121220  0.40369743  0.73615074     1.18440
C150        C  0.04060161  0.39784827  0.66794384     0.98960
C151        C  0.87891912  0.39455334  0.66957695     0.99620
N152        N  0.99701360  0.51359390  0.78995298    -0.05540
N153        N  0.01810273  0.52882066  0.81019074    -0.61840
N154        N  0.91947875  0.52733037  0.76738199    -0.04340
N155        N  0.90030236  0.55281759  0.77394127    -0.62520
N156        N  0.92188569  0.50786194  0.79372599    -0.05040
N157        N  0.90460847  0.52056432  0.81865211    -0.62110
N158        N  0.99338864  0.53214391  0.76324766    -0.03940
N159        N  0.01148276  0.55891627  0.76448073    -0.62800
Mn160      Mn  0.96155493  0.46938569  0.79700061     1.10660
C161        C  0.02714740  0.55713932  0.79348847     1.00180
C162        C  0.89076528  0.54827754  0.80570347     1.00260
N163        N  0.91958132  0.49737356  0.66694930    -0.05050
N164        N  0.89473957  0.49795934  0.64619933    -0.60420
N165        N  0.99484829  0.52418079  0.68726192    -0.04370
N166        N  0.02301493  0.54061581  0.68441506    -0.57150
N167        N  0.99478920  0.49941607  0.66638071    -0.05680
N168        N  0.02233890  0.49834893  0.64909430    -0.59990
N169        N  0.91720377  0.52135595  0.68861702    -0.04670
N170        N  0.89025223  0.53901299  0.68313255    -0.57180
Mn171      Mn  0.95838575  0.46092326  0.66898056     1.20190
Mn172      Mn  0.95579593  0.52685048  0.72645693     1.10090
Cl173      Cl  0.95909480  0.46525577  0.73261124    -0.85150
C174        C  0.87685628  0.52408520  0.65632295     0.97190
C175        C  0.03983656  0.52428057  0.66010417     0.96980
C176        C  0.05947067  0.26134668  0.86889472     0.01380
C177        C  0.08142369  0.26233263  0.89612405     0.01380
C178        C  0.83305801  0.66790137  0.89797234     0.01380
C179        C  0.85187989  0.67150115  0.86932230     0.01380
C180        C  0.09012738  0.66764245  0.89348118     0.01380
C181        C  0.07130102  0.66807915  0.86463479     0.01380
C182        C  0.86250787  0.25637438  0.12156262     0.01380
C183        C  0.83600513  0.25431556  0.09963793     0.01380
N184        N  0.93042483  0.50041645  0.20896736    -0.05300
N185        N  0.91279199  0.51461724  0.18520253    -0.57420
N186        N  0.00739008  0.51502539  0.23399429    -0.04980
N187        N  0.02420692  0.54200576  0.22826648    -0.59550
N188        N  0.00399283  0.49761795  0.20656740    -0.04580
N189        N  0.01689151  0.51477311  0.18130342    -0.57400
N190        N  0.93245756  0.52063073  0.23449408    -0.04260
N191        N  0.91576985  0.54797833  0.22906965    -0.59900
C192        C  0.90319829  0.54394114  0.19864088     0.96880
C193        C  0.02958218  0.54264026  0.19549917     0.96650
N194        N  0.00781326  0.49154746  0.33370470    -0.05490
N195        N  0.03436955  0.49438280  0.35246306    -0.58000
N196        N  0.93142237  0.51793886  0.31094987    -0.03610
N197        N  0.90428869  0.53604418  0.31040450    -0.59250
N198        N  0.92961201  0.49503775  0.33408199    -0.05520
N199        N  0.90062232  0.49696904  0.34946588    -0.58270
N200        N  0.00818873  0.51417692  0.31045559    -0.03250
N201        N  0.03478098  0.53269840  0.31275792    -0.59340
Mn202      Mn  0.96999636  0.51699733  0.27275350     1.18440
C203        C  0.05113490  0.52046129  0.33924260     0.98960
C204        C  0.88523704  0.52304707  0.33470209     0.99620
N205        N  0.99989830  0.41356380  0.20507224    -0.05540
N206        N  0.01807316  0.40063336  0.18065282    -0.61840
N207        N  0.92293631  0.39917857  0.23382411    -0.04340
N208        N  0.90373390  0.37391083  0.22809172    -0.62520
N209        N  0.92530649  0.41847999  0.20755236    -0.05040
N210        N  0.90839603  0.40497125  0.18291925    -0.62110
N211        N  0.99773791  0.39198138  0.22960418    -0.03940
N212        N  0.01489310  0.36510868  0.22293536    -0.62800
Mn213      Mn  0.96507307  0.45745153  0.20567908     1.10660
C214        C  0.02802206  0.37066337  0.19273328     1.00180
C215        C  0.89482223  0.37702136  0.19633258     1.00260
N216        N  0.92762445  0.41859635  0.33458928    -0.05050
N217        N  0.90200960  0.41637212  0.35486685    -0.60420
N218        N  0.00064501  0.39170527  0.30547223    -0.04370
N219        N  0.02760603  0.37384698  0.30150009    -0.57150
N220        N  0.00402832  0.41358390  0.32927132    -0.05680
N221        N  0.03377015  0.41079328  0.34205660    -0.59990
N222        N  0.92507155  0.39724349  0.31040544    -0.04670
N223        N  0.89770266  0.38005511  0.31369943    -0.57180
Mn224      Mn  0.96752534  0.45465699  0.33464380     1.20190
Mn225      Mn  0.96133817  0.39479899  0.27007804     1.10090
Cl226      Cl  0.96615878  0.45597489  0.27055765    -0.85150
C227        C  0.88350049  0.39188610  0.34177299     0.97190
C228        C  0.04811085  0.38582162  0.32453070     0.96980
N229        N  0.42492150  0.28690066  0.96549318    -0.05300
N230        N  0.41927008  0.30867287  0.94165443    -0.57420
N231        N  0.40140279  0.25483037  0.03906033    -0.04980
N232        N  0.38108910  0.25430139  0.06496457    -0.59550
N233        N  0.42269612  0.27904867  0.04172737    -0.04580
N234        N  0.41767152  0.29538412  0.06939240    -0.57400
N235        N  0.40432507  0.26212288  0.96295682    -0.04260
N236        N  0.38437501  0.26639390  0.93773275    -0.59900
C237        C  0.39350247  0.29568432  0.92461675     0.96880
C238        C  0.39169378  0.27987482  0.08364758     0.96650
N239        N  0.42569220  0.15474427  0.02870494    -0.05490
N240        N  0.41199043  0.12890114  0.04403025    -0.58000
N241        N  0.40840255  0.18526121  0.95530600    -0.03610
N242        N  0.38323289  0.17837011  0.93596868    -0.59250
N243        N  0.43075958  0.16147503  0.95393391    -0.05520
N244        N  0.41986570  0.13738795  0.93439354    -0.58270
N245        N  0.40531412  0.18001759  0.03089299    -0.03250
N246        N  0.37905318  0.17280535  0.04849968    -0.59340
Mn247      Mn  0.40466865  0.22068169  0.99688813     1.18440
C248        C  0.38316031  0.14115064  0.05693605     0.98960
C249        C  0.39042755  0.14871666  0.92265343     0.99620
N250        N  0.49855342  0.28444595  0.04632213    -0.05540
N251        N  0.49976820  0.30069895  0.07474854    -0.61840
N252        N  0.52644974  0.26889154  0.96908567    -0.04340
N253        N  0.54478364  0.27184220  0.94203650    -0.62520
N254        N  0.50215104  0.29034074  0.96864331    -0.05040
N255        N  0.50335881  0.30807742  0.94110593    -0.62110
N256        N  0.52146358  0.26165558  0.04578079    -0.03940
N257        N  0.53857331  0.26171068  0.07343286    -0.62800
Mn258      Mn  0.46209091  0.28670013  0.00548605     1.10660
C259        C  0.52505918  0.28625811  0.09155179     1.00180
C260        C  0.53034907  0.29657744  0.92471044     1.00260
N261        N  0.51499657  0.16740531  0.95939578    -0.05050
N262        N  0.53199500  0.14800068  0.93853177    -0.60420
N263        N  0.52591448  0.18594371  0.03882797    -0.04370
N264        N  0.54991107  0.17930001  0.05957716    -0.57150
N265        N  0.50678238  0.15996210  0.03474473    -0.05680
N266        N  0.51820730  0.13495301  0.05265164    -0.59990
N267        N  0.53284963  0.19395957  0.96503220    -0.04670
N268        N  0.56073176  0.19351341  0.94861049    -0.57180
Mn269      Mn  0.46978301  0.15931052  0.99366118     1.20190
Mn270      Mn  0.52682575  0.22783762  0.00489047     1.10090
Cl271      Cl  0.46582894  0.22337503  0.99986282    -0.85150
C272        C  0.56059778  0.16521653  0.93189124     0.97190
C273        C  0.54493754  0.14764074  0.06841561     0.96980
N274        N  0.42574126  0.92326173  0.67607013    -0.05300
N275        N  0.42003211  0.89761264  0.65712477    -0.57420
N276        N  0.41060063  0.00217519  0.69485044    -0.04980
N277        N  0.39517811  0.03065999  0.69036501    -0.59550
N278        N  0.43278783  0.99792218  0.67134903    -0.04580
N279        N  0.43300432  0.02311469  0.65046354    -0.57400
N280        N  0.40299329  0.92603665  0.69919894    -0.04260
N281        N  0.38112106  0.90209048  0.69641844    -0.59900
C282        C  0.39203410  0.88466602  0.66983340     0.96880
C283        C  0.40930879  0.04334203  0.66242852     0.96650
N284        N  0.42955661  0.00288290  0.79857960    -0.05490
N285        N  0.41686509  0.02002614  0.82368902    -0.58000
N286        N  0.40227748  0.93048360  0.77870741    -0.03610
N287        N  0.37424211  0.91739389  0.78911984    -0.59250
N288        N  0.42455611  0.92918215  0.80259829    -0.05520
N289        N  0.41142568  0.91542844  0.82955863    -0.58270
N290        N  0.40932644  0.00442036  0.77307153    -0.03250
N291        N  0.38374105  0.02310258  0.77993188    -0.59340
Mn292      Mn  0.40578732  0.96570251  0.73621715     1.18440
C293        C  0.38849840  0.03300092  0.81129091     0.98960
C294        C  0.38012257  0.90774602  0.82066818     0.99620
N295        N  0.50761008  0.99102140  0.67204666    -0.05540
N296        N  0.50978989  0.01758581  0.65342870    -0.61840
N297        N  0.52488925  0.91589132  0.70013216    -0.04340
N298        N  0.54203749  0.88833318  0.69979869    -0.62520
N299        N  0.50239583  0.91592902  0.67688023    -0.05040
N300        N  0.50386304  0.88828877  0.65983148    -0.62110
N301        N  0.53001704  0.99132181  0.69534439    -0.03940
N302        N  0.54817946  0.01824866  0.69304389    -0.62800
Mn303      Mn  0.46717213  0.95664172  0.67298624     1.10660
C304        C  0.53533872  0.03415729  0.66653547     1.00180
C305        C  0.52875872  0.87144943  0.67448106     1.00260
N306        N  0.50741398  0.92317336  0.80213721    -0.05050
N307        N  0.52039401  0.90743683  0.82806914    -0.60420
N308        N  0.53130123  0.99409688  0.77134943    -0.04370
N309        N  0.55802699  0.01151575  0.77577186    -0.57150
N310        N  0.51048048  0.99784252  0.79619952    -0.05680
N311        N  0.52341876  0.01816464  0.81829613    -0.59990
N312        N  0.52751016  0.92004028  0.77645083    -0.04670
N313        N  0.55323136  0.90166515  0.78395240    -0.57180
Mn314      Mn  0.46806147  0.96312613  0.80089062     1.20190
Mn315      Mn  0.52875168  0.95521936  0.73556549     1.10090
Cl316      Cl  0.46725620  0.95985520  0.73673948    -0.85150
C317        C  0.54866644  0.89344218  0.81594453     0.97190
C318        C  0.55307708  0.02686823  0.80479157     0.96980
C319        C  0.26129681  0.82343712  0.89080772     0.01380
C320        C  0.26314421  0.85590608  0.87829637     0.01380
C321        C  0.67214166  0.06816051  0.87120570     0.01380
C322        C  0.67399246  0.09657431  0.89085602     0.01380
C323        C  0.67392534  0.85268684  0.87721119     0.01380
C324        C  0.67256405  0.83262376  0.90577772     0.01380
N325        N  0.42379662  0.75585135  0.95693373    -0.05300
N326        N  0.41356305  0.77755354  0.93446604    -0.57420
N327        N  0.39988838  0.73416039  0.03325824    -0.04980
N328        N  0.37336383  0.73970045  0.05122369    -0.59550
N329        N  0.41957159  0.75998380  0.03318420    -0.04580
N330        N  0.40563332  0.78407578  0.05100008    -0.57400
N331        N  0.40408437  0.73002629  0.95713627    -0.04260
N332        N  0.38130199  0.73319274  0.93427467    -0.59900
C333        C  0.38716238  0.76281987  0.91990300     0.96880
C334        C  0.37684930  0.77061503  0.06273457     0.96650
N335        N  0.42825695  0.63535717  0.03982057    -0.05490
N336        N  0.42663150  0.61808231  0.06748161    -0.58000
N337        N  0.40535630  0.65384560  0.96225943    -0.03610
N338        N  0.38768786  0.65041121  0.93515924    -0.59250
N339        N  0.42843850  0.63120713  0.96368167    -0.05520
N340        N  0.42726244  0.61188187  0.93753536    -0.58270
N341        N  0.40503800  0.65805518  0.03929735    -0.03250
N342        N  0.38734126  0.65695986  0.06700652    -0.59340
Mn343      Mn  0.40286786  0.69383926  0.99798921     1.18440
C344        C  0.40113561  0.63173677  0.08424506     0.98960
C345        C  0.40161525  0.62404248  0.92013600     0.99620
N346        N  0.50167270  0.76019208  0.03493467    -0.05540
N347        N  0.51105120  0.78342942  0.05608389    -0.61840
N348        N  0.52462990  0.73465886  0.95899279    -0.04340
N349        N  0.55059205  0.74175728  0.94069423    -0.62520
N350        N  0.50366620  0.75959038  0.95939513    -0.05040
N351        N  0.51592322  0.78443347  0.94161406    -0.62110
N352        N  0.52375754  0.73618015  0.03447569    -0.03940
N353        N  0.54753278  0.74205984  0.05560976    -0.62800
Mn354      Mn  0.46207108  0.76047726  0.99635679     1.10660
C355        C  0.53947244  0.77125031  0.06929893     1.00180
C356        C  0.54511571  0.77265382  0.92962822     1.00260
N357        N  0.50374340  0.63280251  0.96183423    -0.05050
N358        N  0.50574595  0.61351838  0.93548829    -0.60420
N359        N  0.52672864  0.66015747  0.03722857    -0.04370
N360        N  0.54459054  0.66060196  0.06452505    -0.57150
N361        N  0.50504083  0.63624449  0.03850772    -0.05680
N362        N  0.50790971  0.61966679  0.06650619    -0.59990
N363        N  0.52525510  0.65688666  0.95976432    -0.04670
N364        N  0.54231825  0.65432703  0.93187991    -0.57180
Mn365      Mn  0.46636431  0.63270281  0.00118425     1.20190
Mn366      Mn  0.52575553  0.69676821  0.99734281     1.10090
Cl367      Cl  0.46428544  0.69646333  0.99842883    -0.85150
C368        C  0.53023399  0.62689833  0.91685694     0.97190
C369        C  0.53276180  0.63499614  0.08263993     0.96980
C370        C  0.25014083  0.84870116  0.13496785     0.01380
C371        C  0.25004173  0.82881136  0.10651909     0.01380
C372        C  0.26180496  0.09402958  0.88944988     0.01380
C373        C  0.26041584  0.06621586  0.86798182     0.01380
C374        C  0.66764353  0.84810082  0.13273853     0.01380
C375        C  0.66557827  0.82213109  0.10915533     0.01380
N376        N  0.41998600  0.92241481  0.19529437    -0.05300
N377        N  0.40667929  0.90592597  0.17014795    -0.57420
N378        N  0.39856559  0.99478219  0.22480137    -0.04980
N379        N  0.37045918  0.00969789  0.21867731    -0.59550
N380        N  0.41854354  0.99670248  0.19888254    -0.04580
N381        N  0.40325715  0.01281164  0.17459642    -0.57400
N382        N  0.40020737  0.92050298  0.22139680    -0.04260
N383        N  0.37415893  0.90230688  0.21482193    -0.59900
C384        C  0.37843465  0.89279539  0.18312010     0.96880
C385        C  0.37320220  0.02128275  0.18750862     0.96650
N386        N  0.42781711  0.99308677  0.32441835    -0.05490
N387        N  0.42690789  0.02075366  0.34191974    -0.58000
N388        N  0.40587501  0.91602672  0.29832809    -0.03610
N389        N  0.39050990  0.88731743  0.29789711    -0.59250
N390        N  0.42944446  0.91565006  0.32045143    -0.05520
N391        N  0.43077143  0.88663162  0.33506697    -0.58270
N392        N  0.40414960  0.99319348  0.30223915    -0.03250
N393        N  0.38665645  0.02064758  0.30445377    -0.59340
Mn394      Mn  0.40176599  0.95609975  0.26232310     1.18440
C395        C  0.40091439  0.03779637  0.32932938     0.98960
C396        C  0.40627644  0.86899509  0.32107251     0.99620
N397        N  0.50175262  0.99876136  0.19705051    -0.05540
N398        N  0.51335389  0.01915818  0.17376111    -0.61840
N399        N  0.52302532  0.92249182  0.21862212    -0.04340
N400        N  0.54741971  0.90216014  0.21245755    -0.62520
N401        N  0.50189850  0.92327071  0.19388306    -0.05040
N402        N  0.51274004  0.90376766  0.16965858    -0.62110
N403        N  0.52302403  0.99748392  0.22171837    -0.03940
N404        N  0.54817341  0.01722870  0.21622380    -0.62800
Mn405      Mn  0.46075935  0.96054930  0.19484989     1.10660
C406        C  0.54216238  0.03106166  0.18653551     1.00180
C407        C  0.54086412  0.89025271  0.18225371     1.00260
N408        N  0.50522829  0.91551472  0.31892263    -0.05050
N409        N  0.50923664  0.88747021  0.33554215    -0.60420
N410        N  0.52598457  0.99399438  0.29835776    -0.04370
N411        N  0.54430815  0.02073291  0.30060733    -0.57150
N412        N  0.50456684  0.99269496  0.32275458    -0.05680
N413        N  0.50791236  0.01860300  0.34220717    -0.59990
N414        N  0.52677411  0.91741879  0.29457540    -0.04670
N415        N  0.54604776  0.89107558  0.29408981    -0.57180
Mn416      Mn  0.46653791  0.95429385  0.32309868     1.20190
Mn417      Mn  0.52499596  0.95793663  0.25841592     1.10090
Cl418      Cl  0.46337597  0.95754199  0.25909149    -0.85150
C419        C  0.53507953  0.87268761  0.31990083     0.97190
C420        C  0.53312756  0.03591138  0.32835647     0.96980
N421        N  0.28849367  0.91512419  0.47262798    -0.05300
N422        N  0.30362128  0.88609899  0.47240994    -0.57420
N423        N  0.27027477  0.99203694  0.44457060    -0.04980
N424        N  0.27456708  0.01710167  0.42407761    -0.59550
N425        N  0.29274860  0.99212311  0.46779007    -0.04580
N426        N  0.31280751  0.01751536  0.46347678    -0.57400
N427        N  0.26621336  0.91613525  0.44910525    -0.04260
N428        N  0.26522993  0.88818111  0.43272709    -0.59900
C429        C  0.28835504  0.86961996  0.44750317     0.96880
C430        C  0.30142581  0.03290832  0.43577579     0.96650
N431        N  0.16715306  0.99509259  0.45869380    -0.05490
N432        N  0.14402845  0.01304255  0.44392595    -0.58000
N433        N  0.19185728  0.91904643  0.44189489    -0.03610
N434        N  0.18697158  0.90145591  0.41498895    -0.59250
N435        N  0.16500082  0.92047426  0.46041615    -0.05520
N436        N  0.14077636  0.90478721  0.44481366    -0.58270
N437        N  0.19375220  0.99426120  0.43971695    -0.03250
N438        N  0.18960804  0.01201553  0.41270214    -0.59340
Mn439      Mn  0.23089777  0.95560143  0.44369730     1.18440
C440        C  0.15870083  0.02382910  0.41538252     0.98960
C441        C  0.15529471  0.89218854  0.41688337     0.99620
N442        N  0.28713766  0.99660319  0.54486970    -0.05540
N443        N  0.30528192  0.02352711  0.54647322    -0.61840
N444        N  0.26158614  0.92270145  0.57181491    -0.04340
N445        N  0.26272989  0.89797781  0.59330755    -0.62520
N446        N  0.28617114  0.92083482  0.55057400    -0.05040
N447        N  0.30467391  0.89484645  0.55722172    -0.62110
N448        N  0.26243718  0.99832405  0.56609057    -0.03940
N449        N  0.26333046  0.02621818  0.58284164    -0.62800
Mn450      Mn  0.29019550  0.95600860  0.50893416     1.10660
C451        C  0.29034000  0.04145774  0.57055552     1.00180
C452        C  0.29006408  0.88099683  0.58423628     1.00260
N453        N  0.16127701  0.92303458  0.54406531    -0.05050
N454        N  0.13664043  0.90505997  0.55646242    -0.60420
N455        N  0.18533180  0.99913947  0.56234416    -0.04370
N456        N  0.17802331  0.02043208  0.58588481    -0.57150
N457        N  0.16177133  0.99829861  0.53995131    -0.05680
N458        N  0.13755477  0.01871091  0.54876815    -0.59990
N459        N  0.18551934  0.92362679  0.56578765    -0.04670
N460        N  0.17867026  0.90531782  0.59183031    -0.57180
Mn461      Mn  0.16245501  0.95903189  0.50090075     1.20190
Mn462      Mn  0.22369697  0.96104702  0.56696455     1.10090
Cl463      Cl  0.22660888  0.95792602  0.50517677    -0.85150
C464        C  0.14844223  0.89344085  0.58596183     0.97190
C465        C  0.14842641  0.03290229  0.57728923     0.96980
N466        N  0.00382795  0.28438736  0.46333761    -0.05300
N467        N  0.03092100  0.30154347  0.45818970    -0.57420
N468        N  0.92494839  0.26644032  0.44560109    -0.04980
N469        N  0.89774910  0.26892884  0.42831182    -0.59550
N470        N  0.92657020  0.28967943  0.46816708    -0.04580
N471        N  0.89940323  0.30814501  0.46683517    -0.57400
N472        N  0.00047012  0.26196674  0.44030464    -0.04260
N473        N  0.02506240  0.26360246  0.41866282    -0.59900
C474        C  0.04394865  0.28864543  0.43000011     0.96880
C475        C  0.88153274  0.29484971  0.44147384     0.96650
N476        N  0.92116255  0.16221081  0.46098167    -0.05490
N477        N  0.90908844  0.13671506  0.44393421    -0.58000
N478        N  0.99469364  0.18696937  0.44043786    -0.03610
N479        N  0.00944826  0.18236639  0.41206879    -0.59250
N480        N  0.99359501  0.15962510  0.45832354    -0.05520
N481        N  0.00701772  0.13529188  0.44042886    -0.58270
N482        N  0.92106870  0.18868335  0.44166073    -0.03250
N483        N  0.90798438  0.18161849  0.41274567    -0.59340
Mn484      Mn  0.96008100  0.22634688  0.44236363     1.18440
C485        C  0.90069686  0.14925961  0.41361541     0.98960
C486        C  0.01664175  0.15038352  0.41140126     0.99620
N487        N  0.93293966  0.28876609  0.54481570    -0.05540
N488        N  0.90638733  0.30738114  0.54721225    -0.61840
N489        N  0.00806754  0.25637533  0.56189399    -0.04340
N490        N  0.03520461  0.25256684  0.57916325    -0.62520
N491        N  0.01056675  0.28081498  0.54057173    -0.05040
N492        N  0.04021266  0.29459373  0.54333912    -0.62110
N493        N  0.93190437  0.26498786  0.56686174    -0.03940
N494        N  0.90471543  0.26705379  0.58501103    -0.62800
Mn495      Mn  0.96873994  0.28767546  0.50435959     1.10660
C496        C  0.88908004  0.29389409  0.57267312     1.00180
C497        C  0.05527706  0.27614440  0.56736363     1.00260
N498        N  0.99653607  0.15643403  0.54327218    -0.05050
N499        N  0.01103961  0.13031989  0.55734520    -0.60420
N500        N  0.92659072  0.19022621  0.56611871    -0.04370
N501        N  0.91003125  0.18764744  0.59385109    -0.57150
N502        N  0.92263409  0.16424280  0.54687542    -0.05680
N503        N  0.90300757  0.14294639  0.56284851    -0.59990
N504        N  0.99962693  0.18207936  0.56310988    -0.04670
N505        N  0.01667435  0.17449438  0.58959278    -0.57180
Mn506      Mn  0.95825288  0.15909486  0.50255257     1.20190
Mn507      Mn  0.96654675  0.22379626  0.56433258     1.10090
Cl508      Cl  0.96320099  0.22389862  0.50330834    -0.85150
C509        C  0.02412360  0.14249278  0.58602594     0.97190
C510        C  0.89519511  0.15848858  0.59220359     0.96980
C511        C  0.83840072  0.05593061  0.28667370     0.01380
C512        C  0.86448665  0.07865207  0.28805017     0.01380
N513        N  0.63401047  0.99439769  0.45933119    -0.05300
N514        N  0.61426062  0.01957147  0.45403172    -0.57420
N515        N  0.65350565  0.91612454  0.44177974    -0.04980
N516        N  0.65123367  0.88711251  0.42715616    -0.59550
N517        N  0.63083407  0.91891513  0.46504482    -0.04580
N518        N  0.61267933  0.89190261  0.46675300    -0.57400
N519        N  0.65618210  0.99220931  0.43562544    -0.04260
N520        N  0.65180523  0.01593489  0.41353608    -0.59900
C521        C  0.62529493  0.03281122  0.42522028     0.96880
C522        C  0.62554635  0.87233907  0.44282330     0.96650
N523        N  0.75522126  0.91310067  0.45786896    -0.05490
N524        N  0.77791097  0.89252270  0.44601405    -0.58000
N525        N  0.73419105  0.98838441  0.43262684    -0.03610
N526        N  0.74153130  0.00553121  0.40569384    -0.59250
N527        N  0.75933649  0.98803209  0.45335847    -0.05520
N528        N  0.78442605  0.00462942  0.44009209    -0.58270
N529        N  0.72985690  0.91373371  0.43760674    -0.03250
N530        N  0.73451056  0.89357097  0.41261595    -0.59340
Mn531      Mn  0.69324057  0.95280099  0.43627749     1.18440
C532        C  0.76428828  0.87998103  0.41785736     0.98960
C533        C  0.77263044  0.01606519  0.41065105     0.99620
N534        N  0.63252350  0.92390552  0.54061043    -0.05540
N535        N  0.61354266  0.89777124  0.54352428    -0.61840
N536        N  0.66071764  0.99934122  0.55850220    -0.04340
N537        N  0.66114747  0.02696273  0.57589239    -0.62520
N538        N  0.63695344  0.00011833  0.53654502    -0.05040
N539        N  0.62057118  0.02828874  0.53860231    -0.62110
N540        N  0.65644128  0.92278472  0.56229750    -0.03940
N541        N  0.65416220  0.89589253  0.58074353    -0.62800
Mn542      Mn  0.63237137  0.95968059  0.50043434     1.10660
C543        C  0.62705673  0.88065014  0.56882455     1.00180
C544        C  0.63588487  0.04485981  0.56336495     1.00260
N545        N  0.76137578  0.99146526  0.53579215    -0.05050
N546        N  0.78660031  0.00835823  0.54824149    -0.60420
N547        N  0.73339136  0.91899237  0.56099985    -0.04370
N548        N  0.74051947  0.90316536  0.58858110    -0.57150
N549        N  0.75822091  0.91728038  0.53971371    -0.05680
N550        N  0.78306879  0.90076327  0.55346331    -0.59990
N551        N  0.73617489  0.99325231  0.55647419    -0.04670
N552        N  0.74311072  0.01162183  0.58197281    -0.57180
Mn553      Mn  0.75977127  0.95245755  0.49651135     1.20190
Mn554      Mn  0.69642457  0.95844871  0.55985448     1.10090
Cl555      Cl  0.69572477  0.95597993  0.49819376    -0.85150
C556        C  0.77423896  0.02139506  0.57698099     0.97190
C557        C  0.77127366  0.89155421  0.58379437     0.96980
C558        C  0.84052889  0.85791368  0.70678143     0.01380
C559        C  0.87120871  0.84183523  0.70529408     0.01380
N560        N  0.92482283  0.76917886  0.53548244    -0.05300
N561        N  0.91233888  0.79613263  0.54946093    -0.57420
N562        N  0.99707951  0.74403795  0.55922389    -0.04980
N563        N  0.01282341  0.75190748  0.58628243    -0.59550
N564        N  0.99800396  0.76847921  0.53751904    -0.04580
N565        N  0.01395767  0.79406394  0.55067831    -0.57400
N566        N  0.92161359  0.74394782  0.55601889    -0.04260
N567        N  0.90438091  0.75270607  0.58217610    -0.59900
C568        C  0.89974469  0.78544692  0.57890461     0.96880
C569        C  0.02363782  0.78276987  0.58104227     0.96650
N570        N  0.99718095  0.64198007  0.54220484    -0.05490
N571        N  0.02221629  0.62172986  0.54558852    -0.58000
N572        N  0.92159174  0.66818909  0.56240499    -0.03610
N573        N  0.89397129  0.66923105  0.57986611    -0.59250
N574        N  0.92108785  0.64386089  0.54101857    -0.05520
N575        N  0.89283280  0.62786072  0.54320654    -0.58270
N576        N  0.99896420  0.66636272  0.56338956    -0.03250
N577        N  0.02602977  0.66304634  0.58165931    -0.59340
Mn578      Mn  0.96003048  0.70551203  0.56070120     1.18440
C579        C  0.04035497  0.63462894  0.57024387     0.98960
C580        C  0.87635437  0.64374106  0.56785649     0.99620
N581        N  0.99993072  0.76208655  0.45516632    -0.05540
N582        N  0.01957057  0.78478386  0.44196142    -0.61840
N583        N  0.92408761  0.73757893  0.43480770    -0.04340
N584        N  0.90611411  0.74322385  0.40829648    -0.62520
N585        N  0.92519974  0.76401683  0.45391473    -0.05040
N586        N  0.90817944  0.78834558  0.43987075    -0.62110
N587        N  0.99842797  0.73655756  0.43509258    -0.03940
N588        N  0.01704315  0.74114451  0.40879114    -0.62800
Mn589      Mn  0.96222343  0.76706786  0.49529492     1.10660
C590        C  0.03055575  0.77106086  0.41306483     1.00180
C591        C  0.89580219  0.77460001  0.41180782     1.00260
N592        N  0.92465912  0.63781811  0.46472912    -0.05050
N593        N  0.90110122  0.61589856  0.46134285    -0.60420
N594        N  0.99892830  0.66123200  0.44114652    -0.04370
N595        N  0.02550281  0.65865809  0.42245325    -0.57150
N596        N  0.99929121  0.63956462  0.46545356    -0.05680
N597        N  0.02638029  0.62166854  0.46391696    -0.59990
N598        N  0.92459487  0.65908114  0.44015840    -0.04670
N599        N  0.90116536  0.65172476  0.41901461    -0.57180
Mn600      Mn  0.96047288  0.63973856  0.50357736     1.20190
Mn601      Mn  0.96111853  0.69851267  0.43735393     1.10090
Cl602      Cl  0.96097336  0.70292894  0.49921114    -0.85150
C603        C  0.88662918  0.62479179  0.43268669     0.97190
C604        C  0.04226347  0.63381068  0.43686086     0.96980
C605        C  0.82618929  0.85633347  0.29048257     0.01380
C606        C  0.84960832  0.83089592  0.28671379     0.01380
C607        C  0.08607884  0.85780296  0.71224538     0.01380
C608        C  0.05891914  0.83679595  0.71051343     0.01380
C609        C  0.85155287  0.08791998  0.70609509     0.01380
C610        C  0.83276252  0.05859016  0.70315735     0.01380
C611        C  0.09537023  0.86014299  0.28851064     0.01380
C612        C  0.06764748  0.83969788  0.29090380     0.01380
C613        C  0.07417032  0.09345200  0.29441769     0.01380
C614        C  0.09830122  0.06870232  0.29163802     0.01380
C615        C  0.07046341  0.08463077  0.71124463     0.01380
C616        C  0.09675279  0.06210572  0.70618936     0.01380
C617        C  0.36476173  0.74968730  0.63188792     0.01380
C618        C  0.33778449  0.74901533  0.61061311     0.01380
C619        C  0.17321485  0.32935050  0.60954168     0.01380
C620        C  0.17098769  0.35909865  0.62690764     0.01380
C621        C  0.74704372  0.32968796  0.39831519     0.01380
C622        C  0.74799345  0.35727357  0.37729712     0.01380
C623        C  0.33203686  0.16850635  0.39414805     0.01380
C624        C  0.35790010  0.17099201  0.37062829     0.01380
C625        C  0.33184154  0.74789036  0.39410652     0.01380
C626        C  0.35794597  0.74324586  0.37184988     0.01380
C627        C  0.17655371  0.32795479  0.38728310     0.01380
C628        C  0.17960612  0.35337429  0.36468463     0.01380
C629        C  0.33954737  0.17298941  0.59411616     0.01380
C630        C  0.36814780  0.17292701  0.61251339     0.01380
C631        C  0.75264265  0.33581517  0.59373946     0.01380
C632        C  0.74894067  0.35669262  0.62133789     0.01380
C633        C  0.25369107  0.08878074  0.09312062     0.01380
C634        C  0.25304602  0.06206861  0.11477276     0.01380
C635        C  0.67116822  0.09023230  0.10493820     0.01380
C636        C  0.67005177  0.06470641  0.12879662     0.01380
C637        C  0.35616266  0.33052355  0.78989812     0.01380
C638        C  0.33377944  0.35676812  0.78769935     0.01380
C639        C  0.56224842  0.33507260  0.78755889     0.01380
C640        C  0.59128588  0.35460228  0.78670882     0.01380
C641        C  0.58566135  0.74159903  0.39843267     0.01380
C642        C  0.56871233  0.74350941  0.36825696     0.01380
C643        C  0.56810528  0.17074361  0.36540956     0.01380
C644        C  0.58726118  0.16755362  0.39490603     0.01380
C645        C  0.57002040  0.58617613  0.78177852     0.01380
C646        C  0.60001321  0.57023611  0.78067315     0.01380
C647        C  0.06831348  0.67091810  0.13432313     0.01380
C648        C  0.09592406  0.67201358  0.11343514     0.01380
C649        C  0.09052641  0.24884147  0.10221023     0.01380
C650        C  0.07467684  0.24663505  0.13307540     0.01380
C651        C  0.33733888  0.55850887  0.78815620     0.01380
C652        C  0.36628210  0.57623669  0.78987309     0.01380
C653        C  0.18041236  0.56733614  0.38452412     0.01380
C654        C  0.17544638  0.59083717  0.40940139     0.01380
C655        C  0.75437505  0.57957768  0.40629495     0.01380
C656        C  0.75226033  0.56232986  0.37667583     0.01380
C657        C  0.74606948  0.59566005  0.60160116     0.01380
C658        C  0.74859858  0.56303961  0.61373864     0.01380
C659        C  0.58531520  0.17349522  0.60449359     0.01380
C660        C  0.55879034  0.16898141  0.62594932     0.01380
C661        C  0.56380747  0.74331467  0.62439150     0.01380
C662        C  0.58323459  0.74685775  0.59606600     0.01380
C663        C  0.17370425  0.58182727  0.59814610     0.01380
C664        C  0.17457894  0.55196195  0.61505548     0.01380
C665        C  0.95877560  0.74383210  0.81212756     0.01380
C666        C  0.95998237  0.77208219  0.79232640     0.01380
C667        C  0.75492726  0.95697572  0.81877485     0.01380
C668        C  0.77899020  0.95742036  0.79288567     0.01380
C669        C  0.78429390  0.75192514  0.00551646     0.01380
C670        C  0.76245602  0.77900158  0.00706479     0.01380
C671        C  0.46346582  0.65839399  0.67813320     0.01380
C672        C  0.46593449  0.63501094  0.70299637     0.01380
C673        C  0.64848168  0.46321254  0.70647273     0.01380
C674        C  0.66810151  0.46233311  0.67781818     0.01380
C675        C  0.62968003  0.65163436  0.49628888     0.01380
C676        C  0.65778537  0.63188791  0.50120386     0.01380
C677        C  0.57227124  0.33143725  0.22100332     0.01380
C678        C  0.59526798  0.35657174  0.21486539     0.01380
C679        C  0.56723183  0.59347420  0.21572610     0.01380
C680        C  0.58715523  0.56597934  0.20988864     0.01380
C681        C  0.33068908  0.56797487  0.21768739     0.01380
C682        C  0.36065500  0.58462827  0.21580760     0.01380
C683        C  0.33153517  0.36136599  0.21449368     0.01380
C684        C  0.35814092  0.33961331  0.21126275     0.01380
C685        C  0.54703531  0.71280164  0.63880506    -0.04520
C686        C  0.53186285  0.68727936  0.61998657    -0.01640
C687        C  0.51162021  0.66408752  0.63682480     0.03350
C688        C  0.49399612  0.67493538  0.66513473    -0.04520
C689        C  0.50505597  0.70395504  0.68024275    -0.01620
C690        C  0.53683562  0.71471194  0.67257760     0.03350
C691        C  0.52810106  0.68997765  0.58454091     0.38000
C692        C  0.48379570  0.72441818  0.70071188     0.37990
C693        C  0.55609450  0.73055082  0.69820336     0.36410
C694        C  0.50974695  0.63030009  0.62561290     0.36410
N695        N  0.57102067  0.74253343  0.71940289    -0.38410
N696        N  0.50878355  0.60301136  0.61716456    -0.38410
N697        N  0.46733884  0.74176065  0.71652866    -0.37850
N698        N  0.52384648  0.69299959  0.55633147    -0.37850
C699        C  0.59433945  0.72053328  0.57184773    -0.04520
C700        C  0.60284594  0.68781895  0.58106240    -0.01640
C701        C  0.60747760  0.66411701  0.55584880     0.03350
C702        C  0.61937511  0.67445928  0.52429328    -0.04520
C703        C  0.61881930  0.70853846  0.51794572    -0.01620
C704        C  0.60003236  0.72928117  0.53800424     0.03350
C705        C  0.60760716  0.67797587  0.61523472     0.38000
C706        C  0.63775926  0.72342463  0.49163803     0.37990
C707        C  0.58657718  0.75845369  0.52199841     0.36410
C708        C  0.58900416  0.63402477  0.55959907     0.36410
N709        N  0.57671946  0.78107794  0.50746890    -0.38410
N710        N  0.57153181  0.61175409  0.56350963    -0.38410
N711        N  0.65322963  0.73812247  0.47264600    -0.37850
N712        N  0.61194079  0.66981471  0.64243021    -0.37850
C713        C  0.71413759  0.61449489  0.59174182    -0.04520
C714        C  0.71589878  0.64586709  0.57588575    -0.01640
C715        C  0.69699882  0.65224700  0.54692541     0.03350
C716        C  0.67351195  0.62878442  0.53575287    -0.04520
C717        C  0.66535254  0.60305098  0.55871559    -0.01620
C718        C  0.68347514  0.59907755  0.58844732     0.03350
C719        C  0.73655861  0.67166318  0.58952798     0.38000
C720        C  0.63813079  0.58076325  0.55367209     0.37990
C721        C  0.66510958  0.59279954  0.61872681     0.36410
C722        C  0.70281674  0.68266186  0.52899397     0.36410
N723        N  0.65032658  0.58837731  0.64299990    -0.38410
N724        N  0.70879044  0.70764566  0.51633957    -0.38410
N725        N  0.61685259  0.56189647  0.55120128    -0.37850
N726        N  0.75286275  0.69243631  0.60031605    -0.37850
C727        C  0.72039631  0.54603906  0.63225485    -0.04520
C728        C  0.72329948  0.53960267  0.66688317    -0.01640
C729        C  0.71034318  0.50954678  0.67959163     0.03350
C730        C  0.68288017  0.49449121  0.66421697    -0.04520
C731        C  0.67329324  0.50821470  0.63345684    -0.01620
C732        C  0.69612436  0.52764356  0.61526020     0.03350
C733        C  0.74661292  0.55754832  0.68706962     0.38000
C734        C  0.63938513  0.50738128  0.62292382     0.37990
C735        C  0.69749559  0.52469044  0.57962219     0.36410
C736        C  0.73236085  0.48966523  0.69964525     0.36410
N737        N  0.70007469  0.52147631  0.55123121    -0.38410
N738        N  0.75183780  0.47434948  0.71390111    -0.38410
N739        N  0.61217230  0.50809152  0.61441849    -0.37850
N740        N  0.76532535  0.57031273  0.70437032    -0.37850
C741        C  0.72573442  0.58957339  0.42766673    -0.04520
C742        C  0.71639040  0.57155978  0.45631428    -0.01640
C743        C  0.68931833  0.58282519  0.47591690     0.03350
C744        C  0.67821351  0.61616430  0.47347680    -0.04520
C745        C  0.69166157  0.63474493  0.44670935    -0.01620
C746        C  0.70825815  0.61856216  0.42072938     0.03350
C747        C  0.72962698  0.53882618  0.46225430     0.38000
C748        C  0.69465755  0.67010441  0.44740688     0.37990
C749        C  0.70546520  0.63033016  0.38683533     0.36410
C750        C  0.66890294  0.55771378  0.49097302     0.36410
N751        N  0.70319457  0.63906506  0.35956090    -0.38410
N752        N  0.65307481  0.53534037  0.49919077    -0.38410
N753        N  0.69986835  0.69810741  0.44599536    -0.37850
N754        N  0.73849737  0.51223986  0.46794561    -0.37850
C755        C  0.38950478  0.58596703  0.76220536    -0.04520
C756        C  0.42327808  0.58629772  0.76992997    -0.01640
C757        C  0.44307221  0.61024859  0.75578265     0.03350
C758        C  0.43717737  0.62018987  0.72255613    -0.04520
C759        C  0.40558431  0.61165163  0.70945513    -0.01620
C760        C  0.38032818  0.60070657  0.73157098     0.03350
C761        C  0.43854303  0.56247363  0.79189847     0.38000
C762        C  0.39925551  0.61038640  0.67422438     0.37990
C763        C  0.34610302  0.60537082  0.72273439     0.36410
C764        C  0.46737925  0.62495140  0.77740256     0.36410
N765        N  0.31882712  0.60955651  0.71547013    -0.38410
N766        N  0.48536025  0.63558323  0.79684167    -0.38410
N767        N  0.39337878  0.60834762  0.64622600    -0.37850
N768        N  0.45231250  0.54359102  0.80839716    -0.37850
C769        C  0.61759597  0.55768173  0.74924409    -0.04520
C770        C  0.60071203  0.54367962  0.72211169    -0.01640
C771        C  0.60922149  0.51170442  0.71099173     0.03350
C772        C  0.63914868  0.49676665  0.72096380    -0.04520
C773        C  0.66071070  0.51638259  0.74099503    -0.01620
C774        C  0.65051369  0.54762187  0.75266188     0.03350
C775        C  0.58763761  0.56562046  0.69699693     0.38000
C776        C  0.69164635  0.50472889  0.75420466     0.37990
C777        C  0.67395823  0.56926223  0.76882469     0.36410
C778        C  0.58681446  0.49479334  0.68897038     0.36410
N779        N  0.69381178  0.58579005  0.78088581    -0.38410
N780        N  0.56816801  0.48177462  0.67177122    -0.38410
N781        N  0.71575563  0.49780503  0.76790418    -0.37850
N782        N  0.57772649  0.58271672  0.67621443    -0.37850
C783        C  0.55073204  0.59456885  0.75152721    -0.04520
C784        C  0.52630323  0.57360307  0.73803029    -0.01640
C785        C  0.50347431  0.58679066  0.71505527     0.03350
C786        C  0.49945172  0.62157325  0.71282948    -0.04520
C787        C  0.52452273  0.64157389  0.72706446    -0.01620
C788        C  0.55299311  0.62652427  0.73880505     0.03350
C789        C  0.52635709  0.53847748  0.74457633     0.38000
C790        C  0.51738426  0.67256848  0.74319198     0.37990
C791        C  0.58460261  0.64244660  0.73447356     0.36410
C792        C  0.48190901  0.56500129  0.69667295     0.36410
N793        N  0.61001431  0.65472039  0.72995792    -0.38410
N794        N  0.46476368  0.54767807  0.68187330    -0.38410
N795        N  0.51291328  0.69614290  0.75882061    -0.37850
N796        N  0.52583418  0.51009388  0.74802463    -0.37850
C797        C  0.59087217  0.70928726  0.41767482    -0.04520
C798        C  0.61960386  0.68994744  0.41234833    -0.01640
C799        C  0.62525120  0.66117802  0.43170130     0.03350
C800        C  0.61055928  0.65846618  0.46333374    -0.04520
C801        C  0.57812656  0.67178012  0.46454692    -0.01620
C802        C  0.56808362  0.69681009  0.44159714     0.03350
C803        C  0.63937100  0.69477026  0.38268954     0.38000
C804        C  0.55438767  0.65723122  0.48712576     0.37990
C805        C  0.53376357  0.70633367  0.44068380     0.36410
C806        C  0.62455225  0.63168679  0.41184759     0.36410
N807        N  0.50572092  0.71166773  0.44005853    -0.38410
N808        N  0.62143942  0.61014082  0.39338593    -0.38410
N809        N  0.53477905  0.64488997  0.50402866    -0.37850
N810        N  0.65490657  0.69807330  0.35869200    -0.37850
C811        C  0.61083623  0.37365593  0.75906277    -0.04520
C812        C  0.60293689  0.37834076  0.72507079    -0.01640
C813        C  0.61474840  0.40721338  0.70726209     0.03350
C814        C  0.63403533  0.43209999  0.72354926    -0.04520
C815        C  0.64211567  0.42501903  0.75686637    -0.01620
C816        C  0.63756620  0.39343179  0.76956524     0.03350
C817        C  0.59032243  0.35064248  0.70659033     0.38000
C818        C  0.65581654  0.44805646  0.78011510     0.37990
C819        C  0.66472959  0.38022918  0.78884420     0.36410
C820        C  0.60487152  0.41176276  0.67318492     0.36410
N821        N  0.68776766  0.37165252  0.80340949    -0.38410
N822        N  0.59590875  0.41466518  0.64612421    -0.38410
N823        N  0.66597289  0.46313489  0.80213179    -0.37850
N824        N  0.58140509  0.32825205  0.69127578    -0.37850
C825        C  0.71910510  0.37615613  0.63386270    -0.04520
C826        C  0.71417739  0.37898549  0.66865828    -0.01640
C827        C  0.69993176  0.40760998  0.68266046     0.03350
C828        C  0.68175383  0.43008215  0.66286752    -0.04520
C829        C  0.68021684  0.42264647  0.62813305    -0.01620
C830        C  0.70110553  0.39821675  0.61360860     0.03350
C831        C  0.72247630  0.35213111  0.69089814     0.38000
C832        C  0.65594825  0.43738996  0.60662645     0.37990
C833        C  0.70421528  0.39667816  0.57774113     0.36410
C834        C  0.70775258  0.41467598  0.71692133     0.36410
N835        N  0.70646301  0.39605481  0.54908162    -0.38410
N836        N  0.71588808  0.41928410  0.74399894    -0.38410
N837        N  0.63675244  0.44620149  0.58736119    -0.37850
N838        N  0.72701510  0.33154941  0.71034667    -0.37850
C839        C  0.38391224  0.71881739  0.64071864    -0.04520
C840        C  0.38070961  0.70477263  0.67277999    -0.01640
C841        C  0.40780514  0.68794451  0.68682911     0.03350
C842        C  0.43191806  0.67381560  0.66568631    -0.04520
C843        C  0.42785938  0.67863656  0.63119835    -0.01620
C844        C  0.40815140  0.70471850  0.61958590     0.03350
C845        C  0.34996366  0.70664246  0.69112477     0.38000
C846        C  0.44168479  0.65597398  0.60706597     0.37990
C847        C  0.41582254  0.71669393  0.58670963     0.36410
C848        C  0.41229943  0.68876124  0.72240005     0.36410
N849        N  0.42570522  0.72342726  0.56054637    -0.38410
N850        N  0.41689940  0.69029419  0.75067719    -0.38410
N851        N  0.45049756  0.63832543  0.58625552    -0.37850
N852        N  0.32595843  0.70773299  0.70678269    -0.37850
C853        C  0.81978994  0.03473453  0.73006394    -0.04520
C854        C  0.79667038  0.04531937  0.75506133    -0.01640
C855        C  0.77672190  0.02155467  0.77278486     0.03350
C856        C  0.78373854  0.98749091  0.76888142    -0.04520
C857        C  0.79280400  0.98074374  0.73635905    -0.01620
C858        C  0.81712042  0.00048649  0.72170793     0.03350
C859        C  0.79049633  0.08026149  0.76018456     0.38000
C860        C  0.76609511  0.97040456  0.71537078     0.37990
C861        C  0.83638482  0.98459751  0.69640823     0.36410
C862        C  0.74199023  0.02898432  0.77374923     0.36410
N863        N  0.85076793  0.97031193  0.67623031    -0.38410
N864        N  0.71378239  0.03281107  0.77260890    -0.38410
N865        N  0.74328558  0.96448040  0.69932657    -0.37850
N866        N  0.78581214  0.10814471  0.76450897    -0.37850
C867        C  0.99101841  0.79054083  0.78037442    -0.04520
C868        C  0.98998118  0.82534483  0.77547402    -0.01640
C869        C  0.00940398  0.84001699  0.75043962     0.03350
C870        C  0.03943179  0.82499295  0.74066237    -0.04520
C871        C  0.04630124  0.79404534  0.75552976    -0.01620
C872        C  0.01986330  0.77470217  0.76836154     0.03350
C873        C  0.97237340  0.84727793  0.79753987     0.38000
C874        C  0.07994808  0.78298454  0.75940841     0.37990
C875        C  0.01930340  0.73984086  0.76132378     0.36410
C876        C  0.99417027  0.86653060  0.73189935     0.36410
N877        N  0.01701264  0.71227868  0.75416668    -0.38410
N878        N  0.97933930  0.88649412  0.71771064    -0.38410
N879        N  0.10680361  0.77405237  0.76313928    -0.37850
N880        N  0.96030172  0.86640372  0.81514704    -0.37850
C881        C  0.07515163  0.62289889  0.42612412    -0.04520
C882        C  0.09945646  0.64601951  0.41616926    -0.01640
C883        C  0.13133247  0.63499270  0.40768205     0.03350
C884        C  0.14033934  0.60180957  0.41427673    -0.04520
C885        C  0.11652245  0.58002062  0.42812371    -0.01620
C886        C  0.08346693  0.58942370  0.42957065     0.03350
C887        C  0.09341608  0.68121750  0.41905266     0.38000
C888        C  0.12570347  0.54992610  0.44519667     0.37990
C889        C  0.05822979  0.56455702  0.43530413     0.36410
C890        C  0.15598210  0.65855630  0.39638186     0.36410
N891        N  0.03818609  0.54463801  0.43958830    -0.38410
N892        N  0.17574044  0.67730474  0.38759779    -0.38410
N893        N  0.13078774  0.52570490  0.45963975    -0.37850
N894        N  0.08934631  0.70932580  0.42235646    -0.37850
C895        C  0.84155280  0.63689829  0.57703934    -0.04520
C896        C  0.81850222  0.63098718  0.55180647    -0.01640
C897        C  0.78713475  0.61861632  0.55976418     0.03350
C898        C  0.77769929  0.61357770  0.59321698    -0.04520
C899        C  0.79858096  0.62561887  0.61843580    -0.01620
C900        C  0.83094508  0.63612274  0.61051671     0.03350
C901        C  0.82657021  0.63879074  0.51760294     0.38000
C902        C  0.78607353  0.62951564  0.65188534     0.37990
C903        C  0.85333380  0.64537048  0.63682279     0.36410
C904        C  0.76580822  0.60860510  0.53320960     0.36410
N905        N  0.87116814  0.65283040  0.65783482    -0.38410
N906        N  0.74937449  0.60050118  0.51150707    -0.38410
N907        N  0.77620973  0.63443743  0.67841961    -0.37850
N908        N  0.83275135  0.64582149  0.49046107    -0.37850
C909        C  0.14026566  0.59829820  0.59163884    -0.04520
C910        C  0.12370326  0.59053025  0.56211211    -0.01640
C911        C  0.09023531  0.59856140  0.55762229     0.03350
C912        C  0.07396900  0.62104371  0.57925432    -0.04520
C913        C  0.09057421  0.63018566  0.60861230    -0.01620
C914        C  0.12263982  0.61749821  0.61560514     0.03350
C915        C  0.14062601  0.57330413  0.53589667     0.38000
C916        C  0.07395959  0.65086786  0.63290146     0.37990
C917        C  0.13663459  0.62492561  0.64762103     0.36410
C918        C  0.07249514  0.58097699  0.53195358     0.36410
N919        N  0.14635381  0.63262518  0.67342443    -0.38410
N920        N  0.05834876  0.56591294  0.51227857    -0.38410
N921        N  0.06085587  0.66726336  0.65246256    -0.37850
N922        N  0.15286192  0.56000472  0.51375253    -0.37850
C923        C  0.85377273  0.61255399  0.42366512    -0.04520
C924        C  0.82918862  0.63540847  0.41501456    -0.01640
C925        C  0.79607632  0.62571778  0.41411037     0.03350
C926        C  0.78739004  0.59183404  0.41791215    -0.04520
C927        C  0.81237217  0.56896115  0.42704702    -0.01620
C928        C  0.84539153  0.57929222  0.42954643     0.03350
C929        C  0.83772676  0.66944096  0.40716839     0.38000
C930        C  0.80499570  0.53432521  0.43234351     0.37990
C931        C  0.87113491  0.55519481  0.43620311     0.36410
C932        C  0.77252659  0.65174119  0.40746878     0.36410
N933        N  0.89164680  0.53592935  0.44123502    -0.38410
N934        N  0.75705735  0.67518056  0.40201296    -0.38410
N935        N  0.80089992  0.50629456  0.43626137    -0.37850
N936        N  0.84481679  0.69629745  0.40045452    -0.37850
C937        C  0.04628527  0.78907750  0.38456599    -0.04520
C938        C  0.04685373  0.82399239  0.38374744    -0.01640
C939        C  0.05244949  0.84081570  0.35354621     0.03350
C940        C  0.06115528  0.82301957  0.32422919    -0.04520
C941        C  0.06453228  0.78844794  0.32619404    -0.01620
C942        C  0.05637109  0.77145729  0.35560491     0.03350
C943        C  0.04087418  0.84316522  0.41362060     0.38000
C944        C  0.07838800  0.77043452  0.29820953     0.37990
C945        C  0.05797889  0.73561923  0.35495962     0.36410
C946        C  0.04776460  0.87639416  0.35316981     0.36410
N947        N  0.05895229  0.70708587  0.35328200    -0.38410
N948        N  0.04278729  0.90455769  0.35410119    -0.38410
N949        N  0.09075805  0.75649652  0.27637542    -0.37850
N950        N  0.03631675  0.85879154  0.43723713    -0.37850
C951        C  0.04810604  0.82363921  0.67648828    -0.04520
C952        C  0.05594370  0.79084041  0.66637207    -0.01640
C953        C  0.05564614  0.78223805  0.63260608     0.03350
C954        C  0.03799459  0.80131412  0.60957626    -0.04520
C955        C  0.02746441  0.83311389  0.61921491    -0.01620
C956        C  0.03454411  0.84504337  0.65170329     0.03350
C957        C  0.06472415  0.76459633  0.68900228     0.38000
C958        C  0.00907500  0.85335793  0.59608198     0.37990
C959        C  0.02752837  0.87931020  0.65908150     0.36410
C960        C  0.07345124  0.75299446  0.62133629     0.36410
N961        N  0.02203465  0.90699414  0.66370605    -0.38410
N962        N  0.08790374  0.73006570  0.61213648    -0.38410
N963        N  0.99430696  0.86956012  0.57767338    -0.37850
N964        N  0.07180318  0.74105494  0.70372675    -0.37850
C965        C  0.88227386  0.79285202  0.38286342    -0.04520
C966        C  0.85077277  0.78466779  0.37099300    -0.01640
C967        C  0.84134847  0.79324155  0.33835506     0.03350
C968        C  0.86189131  0.81390915  0.31844183    -0.04520
C969        C  0.89291872  0.82324016  0.33127301    -0.01620
C970        C  0.90331774  0.81238214  0.36292345     0.03350
C971        C  0.82705413  0.76950737  0.39339020     0.38000
C972        C  0.91258508  0.84674942  0.31286991     0.37990
C973        C  0.93576533  0.82121860  0.37496438     0.36410
C974        C  0.81000668  0.78128237  0.32629560     0.36410
N975        N  0.96165285  0.82809677  0.38469674    -0.38410
N976        N  0.78479708  0.77095983  0.31788438    -0.38410
N977        N  0.92603999  0.86689368  0.29762494    -0.37850
N978        N  0.80766706  0.75831475  0.41136593    -0.37850
C979        C  0.88368894  0.82028647  0.73497927    -0.04520
C980        C  0.89179059  0.83105602  0.76809152    -0.01640
C981        C  0.90921971  0.80948034  0.78995808     0.03350
C982        C  0.92877725  0.78424209  0.77626586    -0.04520
C983        C  0.92081042  0.77359445  0.74440478    -0.01620
C984        C  0.89292672  0.78681889  0.72870725     0.03350
C985        C  0.88769615  0.86406850  0.78047665     0.38000
C986        C  0.94227266  0.75101765  0.72647116     0.37990
C987        C  0.87511776  0.76482863  0.70726986     0.36410
C988        C  0.90955544  0.81508229  0.82552170     0.36410
N989        N  0.86308534  0.74357553  0.69256464    -0.38410
N990        N  0.90948585  0.81980962  0.85384431    -0.38410
N991        N  0.95940122  0.73333702  0.71180969    -0.37850
N992        N  0.88715026  0.88917768  0.79414820    -0.37850
C993        C  0.83103381  0.87939514  0.73699426    -0.04520
C994        C  0.80647687  0.86991505  0.76029316    -0.01640
C995        C  0.79505528  0.89239882  0.78535910     0.03350
C996        C  0.80229147  0.92692575  0.78298715    -0.04520
C997        C  0.83306997  0.93288828  0.76668764    -0.01620
C998        C  0.84559963  0.91085474  0.74189300     0.03350
C999        C  0.79450634  0.83625020  0.75998510     0.38000
C1000       C  0.85285875  0.96079297  0.77712304     0.37990
C1001       C  0.87592290  0.91888361  0.72444142     0.36410
C1002       C  0.79303731  0.87793588  0.81814608     0.36410
N1003       N  0.90066790  0.92508412  0.71138804    -0.38410
N1004       N  0.79277780  0.86571336  0.84416044    -0.38410
N1005       N  0.86881292  0.98288881  0.78554448    -0.37850
N1006       N  0.78498871  0.80931326  0.75969026    -0.37850
C1007       C  0.89010818  0.83807420  0.67144274    -0.04520
C1008       C  0.91471031  0.81398380  0.66701992    -0.01640
C1009       C  0.91545991  0.79490321  0.63821234     0.03350
C1010       C  0.89873321  0.80618189  0.60951054    -0.04520
C1011       C  0.88613078  0.83873484  0.61032149    -0.01620
C1012       C  0.88316299  0.85533890  0.64140609     0.03350
C1013       C  0.94487717  0.81514187  0.68541385     0.38000
C1014       C  0.87656277  0.85508421  0.57983279     0.37990
C1015       C  0.87771183  0.89049312  0.64142454     0.36410
C1016       C  0.93632762  0.76557788  0.63808947     0.36410
N1017       N  0.87430329  0.91874313  0.63926881    -0.38410
N1018       N  0.95260457  0.74204961  0.63801838    -0.38410
N1019       N  0.86901221  0.86831823  0.55552591    -0.37850
N1020       N  0.97069834  0.81266547  0.69696802    -0.37850
C1021       C  0.61549357  0.83756956  0.43690628    -0.04520
C1022       C  0.63968237  0.81333265  0.43118840    -0.01640
C1023       C  0.63085233  0.78215041  0.41842604     0.03350
C1024       C  0.59698813  0.77297061  0.41575310    -0.04520
C1025       C  0.57315729  0.79563465  0.42836537    -0.01620
C1026       C  0.58210370  0.82830635  0.43663067     0.03350
C1027       C  0.67384585  0.82011209  0.43963683     0.38000
C1028       C  0.53964656  0.78569345  0.43533558     0.37990
C1029       C  0.55668162  0.85247147  0.44428754     0.36410
C1030       C  0.65774687  0.76210068  0.40609229     0.36410
N1031       N  0.53633903  0.87167636  0.45030235    -0.38410
N1032       N  0.68179626  0.74948552  0.39703763    -0.38410
N1033       N  0.51274139  0.78023301  0.44330839    -0.37850
N1034       N  0.70094993  0.82526689  0.44683792    -0.37850
C1035       C  0.62772233  0.07950372  0.57347732    -0.04520
C1036       C  0.63080910  0.09000990  0.60672760    -0.01640
C1037       C  0.62191546  0.12258861  0.61579937     0.03350
C1038       C  0.60535751  0.14356637  0.59288032    -0.04520
C1039       C  0.60416379  0.13349371  0.55919649    -0.01620
C1040       C  0.61686912  0.10251884  0.54955871     0.03350
C1041       C  0.64124936  0.06691696  0.63222402     0.38000
C1042       C  0.58731554  0.15318012  0.53441728     0.37990
C1043       C  0.61983989  0.09479602  0.51467081     0.36410
C1044       C  0.62924390  0.13378345  0.64905926     0.36410
N1045       N  0.62315722  0.08854930  0.48691508    -0.38410
N1046       N  0.63612084  0.14190796  0.67565760    -0.38410
N1047       N  0.57350089  0.16780096  0.51404621    -0.37850
N1048       N  0.64939208  0.04857618  0.65270950    -0.37850
C1049       C  0.61303205  0.06500125  0.41208759    -0.04520
C1050       C  0.63280538  0.08467387  0.39064125    -0.01640
C1051       C  0.62506589  0.11828172  0.38587952     0.03350
C1052       C  0.59750395  0.13243561  0.40231739    -0.04520
C1053       C  0.57762283  0.11272375  0.42315000    -0.01620
C1054       C  0.58369771  0.07870076  0.42569427     0.03350
C1055       C  0.66167998  0.07119728  0.37405330     0.38000
C1056       C  0.55125709  0.12755983  0.44257739     0.37990
C1057       C  0.55951558  0.05809199  0.44255669     0.36410
C1058       C  0.64821280  0.13966239  0.36842403     0.36410
N1059       N  0.54007219  0.04176799  0.45586166    -0.38410
N1060       N  0.66706734  0.15681375  0.35531434    -0.38410
N1061       N  0.53028432  0.13909274  0.45836870    -0.37850
N1062       N  0.68469035  0.06070221  0.36055874    -0.37850
C1063       C  0.61626883  0.84692842  0.57781292    -0.04520
C1064       C  0.63962049  0.82167193  0.58434392    -0.01640
C1065       C  0.62901006  0.78890125  0.58923205     0.03350
C1066       C  0.59510179  0.78119011  0.58760068    -0.04520
C1067       C  0.57221369  0.80608234  0.57857413    -0.01620
C1068       C  0.58245290  0.83896341  0.57556821     0.03350
C1069       C  0.67468749  0.82878451  0.58490751     0.38000
C1070       C  0.53873540  0.79747696  0.56928198     0.37990
C1071       C  0.55779404  0.86456343  0.57053428     0.36410
C1072       C  0.65303501  0.76300220  0.59554690     0.36410
N1073       N  0.53802351  0.88484674  0.56662899    -0.38410
N1074       N  0.67218485  0.74234132  0.60046452    -0.38410
N1075       N  0.51237741  0.79104420  0.56053806    -0.37850
N1076       N  0.70272614  0.83409034  0.58538758    -0.37850
C1077       C  0.78249555  0.86448277  0.38942528    -0.04520
C1078       C  0.81639762  0.87087379  0.38465224    -0.01640
C1079       C  0.82978841  0.87118972  0.35228374     0.03350
C1080       C  0.81130847  0.85895358  0.32504115    -0.04520
C1081       C  0.77823447  0.84956179  0.33038308    -0.01620
C1082       C  0.76408602  0.85183330  0.36233310     0.03350
C1083       C  0.83741328  0.87890843  0.41248908     0.38000
C1084       C  0.75811856  0.83954514  0.30242127     0.37990
C1085       C  0.72990862  0.84227198  0.36670110     0.36410
C1086       C  0.85956190  0.89015071  0.34647331     0.36410
N1087       N  0.70245922  0.83507474  0.36959916    -0.38410
N1088       N  0.88254736  0.90673596  0.34292781    -0.38410
N1089       N  0.74213882  0.83173081  0.28006872    -0.37850
N1090       N  0.85446964  0.88505897  0.43456502    -0.37850
C1091       C  0.79235766  0.03597232  0.60555482    -0.04520
C1092       C  0.77306588  0.05187686  0.63025495    -0.01640
C1093       C  0.78484449  0.05549220  0.66277656     0.03350
C1094       C  0.81853466  0.04967688  0.66960495    -0.04520
C1095       C  0.83915774  0.03721413  0.64367635    -0.01620
C1096       C  0.82559299  0.02839282  0.61259450     0.03350
C1097       C  0.74126841  0.06629632  0.62179801     0.38000
C1098       C  0.87405824  0.03186515  0.64942175     0.37990
C1099       C  0.84565784  0.01068126  0.58863246     0.36410
C1100       C  0.76257478  0.06896327  0.68757657     0.36410
N1101       N  0.86178120  0.99634681  0.56971866    -0.38410
N1102       N  0.74317277  0.07994174  0.70563546    -0.38410
N1103       N  0.90162738  0.02598567  0.65387511    -0.37850
N1104       N  0.71628500  0.07824769  0.61488256    -0.37850
C1105       C  0.79168306  0.88188180  0.61296462    -0.04520
C1106       C  0.79303778  0.90375460  0.64009263    -0.01640
C1107       C  0.80063514  0.89179054  0.67182468     0.03350
C1108       C  0.81883871  0.86254685  0.67555983    -0.04520
C1109       C  0.81458790  0.83904167  0.64948638    -0.01620
C1110       C  0.80149725  0.84893568  0.61817756     0.03350
C1111       C  0.78282831  0.93781480  0.63653311     0.38000
C1112       C  0.81912000  0.80428385  0.65500323     0.37990
C1113       C  0.79759632  0.82521574  0.59155598     0.36410
C1114       C  0.77462227  0.89556914  0.69564393     0.36410
N1115       N  0.79466430  0.80636967  0.57022660    -0.38410
N1116       N  0.75267026  0.89530976  0.71394029    -0.38410
N1117       N  0.81966597  0.77580408  0.65616346    -0.37850
N1118       N  0.77477356  0.96504311  0.63339290    -0.37850
C1119       C  0.82101660  0.04634554  0.31909982    -0.04520
C1120       C  0.80121713  0.06913760  0.33742574    -0.01640
C1121       C  0.78627118  0.05974591  0.36798883     0.03350
C1122       C  0.79311694  0.02877732  0.38239528    -0.04520
C1123       C  0.81494528  0.00727572  0.36585183    -0.01620
C1124       C  0.82638918  0.01464954  0.33336629     0.03350
C1125       C  0.79484328  0.10206509  0.32500308     0.38000
C1126       C  0.82626002  0.97776954  0.38278663     0.37990
C1127       C  0.84446650  0.98940141  0.31548518     0.36410
C1128       C  0.76419607  0.08230795  0.38516433     0.36410
N1129       N  0.85877798  0.96827269  0.30250436    -0.38410
N1130       N  0.74662850  0.10030320  0.39890032    -0.38410
N1131       N  0.83567575  0.95464480  0.39677063    -0.37850
N1132       N  0.78826923  0.12850921  0.31625825    -0.37850
C1133       C  0.84703329  0.30428140  0.43061866    -0.04520
C1134       C  0.83078015  0.28576555  0.40544997    -0.01640
C1135       C  0.79980957  0.29563433  0.39315335     0.03350
C1136       C  0.78075373  0.31899740  0.41078295    -0.04520
C1137       C  0.79534438  0.33529451  0.43797453    -0.01620
C1138       C  0.82908717  0.33032326  0.44572114     0.03350
C1139       C  0.84276487  0.25375141  0.39498507     0.38000
C1140       C  0.77528333  0.35652663  0.45863234     0.37990
C1141       C  0.84488209  0.35222195  0.46910063     0.36410
C1142       C  0.78542072  0.27751945  0.36561911     0.36410
N1143       N  0.85759844  0.37013697  0.48731591    -0.38410
N1144       N  0.77390547  0.26156562  0.34489499    -0.38410
N1145       N  0.75922214  0.37279859  0.47586424    -0.37850
N1146       N  0.85043655  0.22729807  0.38748890    -0.37850
C1147       C  0.08682257  0.28361703  0.58427776    -0.04520
C1148       C  0.11550667  0.26389020  0.57944764    -0.01640
C1149       C  0.14477946  0.27200159  0.59718634     0.03350
C1150       C  0.14566410  0.30193677  0.61499200    -0.04520
C1151       C  0.11522385  0.30719698  0.63137703    -0.01620
C1152       C  0.08590827  0.30294273  0.61328465     0.03350
C1153       C  0.11485239  0.23636994  0.55667953     0.38000
C1154       C  0.11368360  0.30077247  0.66667176     0.37990
C1155       C  0.05460159  0.31376978  0.62704226     0.36410
C1156       C  0.17190218  0.24925044  0.60080823     0.36410
N1157       N  0.02934137  0.32219661  0.63756591    -0.38410
N1158       N  0.19354287  0.23130183  0.60573433    -0.38410
N1159       N  0.11193498  0.29494773  0.69477467    -0.37850
N1160       N  0.11363033  0.21414989  0.53869948    -0.37850
C1161       C  0.78773007  0.32395870  0.58769419    -0.04520
C1162       C  0.81163344  0.34530555  0.57341360    -0.01640
C1163       C  0.84512270  0.33701582  0.57415481     0.03350
C1164       C  0.85481850  0.30431048  0.58131179    -0.04520
C1165       C  0.83041656  0.28129004  0.59179112    -0.01620
C1166       C  0.79725059  0.29143958  0.59597339     0.03350
C1167       C  0.80192820  0.37205003  0.55164305     0.38000
C1168       C  0.83835910  0.24675842  0.59658674     0.37990
C1169       C  0.77250995  0.26791480  0.60695147     0.36410
C1170       C  0.86935802  0.36251927  0.56702403     0.36410
N1171       N  0.75298577  0.24910935  0.61610434    -0.38410
N1172       N  0.88855271  0.38299550  0.56156145    -0.38410
N1173       N  0.84348176  0.21888256  0.60023946    -0.37850
N1174       N  0.79577896  0.39268913  0.53273476    -0.37850
C1175       C  0.07623112  0.29947849  0.41533459    -0.04520
C1176       C  0.09538602  0.27871070  0.39424534    -0.01640
C1177       C  0.12734484  0.28848253  0.38371296     0.03350
C1178       C  0.14138149  0.31791236  0.39589635    -0.04520
C1179       C  0.12294366  0.33712523  0.41868219    -0.01620
C1180       C  0.08981556  0.32992332  0.42542967     0.03350
C1181       C  0.08373453  0.24627334  0.38496463     0.38000
C1182       C  0.13844658  0.36193132  0.43900348     0.37990
C1183       C  0.07021817  0.35429244  0.44330426     0.36410
C1184       C  0.14738723  0.26615807  0.36393388     0.36410
N1185       N  0.05492545  0.37394455  0.45748745    -0.38410
N1186       N  0.16344081  0.24782897  0.34884098    -0.38410
N1187       N  0.14846266  0.38167282  0.45698074    -0.37850
N1188       N  0.07534370  0.22002311  0.37759888    -0.37850
C1189       C  0.89193108  0.13013708  0.38208822    -0.04520
C1190       C  0.89244278  0.09514430  0.38009425    -0.01640
C1191       C  0.88623911  0.07860268  0.34934192     0.03350
C1192       C  0.87394407  0.09600545  0.32101078    -0.04520
C1193       C  0.87229615  0.13100378  0.32408543    -0.01620
C1194       C  0.88508136  0.14741785  0.35212064     0.03350
C1195       C  0.90168149  0.07582443  0.40894526     0.38000
C1196       C  0.85554285  0.15181908  0.30030100     0.37990
C1197       C  0.89415182  0.18190586  0.34772242     0.36410
C1198       C  0.89511768  0.04407982  0.34714220     0.36410
N1199       N  0.90229718  0.20890454  0.34283276    -0.38410
N1200       N  0.90360097  0.01676245  0.34714160    -0.38410
N1201       N  0.84189341  0.17110909  0.28412066    -0.37850
N1202       N  0.90910663  0.06017438  0.43181477    -0.37850
C1203       C  0.03805134  0.12407277  0.61508054    -0.04520
C1204       C  0.02036290  0.09834310  0.63071875    -0.01640
C1205       C  0.02807255  0.08848235  0.66375035     0.03350
C1206       C  0.05587694  0.10183839  0.68050050    -0.04520
C1207       C  0.07284458  0.12824996  0.66478536    -0.01620
C1208       C  0.06411276  0.13894018  0.63265704     0.03350
C1209       C  0.99373710  0.08244601  0.61303760     0.38000
C1210       C  0.09935231  0.14566405  0.68098477     0.37990
C1211       C  0.08213950  0.16624602  0.61795731     0.36410
C1212       C  0.00620715  0.06561810  0.68057671     0.36410
N1213       N  0.09692837  0.18835455  0.60755524    -0.38410
N1214       N  0.98769684  0.04767224  0.69308319    -0.38410
N1215       N  0.12080968  0.16142974  0.69115067    -0.37850
N1216       N  0.97281087  0.06954454  0.59859642    -0.37850
C1217       C  0.87681096  0.14518907  0.62184255    -0.04520
C1218       C  0.85599067  0.11761564  0.61891594    -0.01640
C1219       C  0.83557096  0.10990102  0.64595373     0.03350
C1220       C  0.84837358  0.11475732  0.67812204    -0.04520
C1221       C  0.86168301  0.14637430  0.68161323    -0.01620
C1222       C  0.87692188  0.16176899  0.65366834     0.03350
C1223       C  0.84976395  0.10223778  0.58720854     0.38000
C1224       C  0.85307432  0.16432966  0.71119536     0.37990
C1225       C  0.89224957  0.19365445  0.65864093     0.36410
C1226       C  0.80249856  0.12262525  0.64141065     0.36410
N1227       N  0.90427680  0.21920187  0.66291369    -0.38410
N1228       N  0.77650628  0.13383683  0.63760947    -0.38410
N1229       N  0.84372404  0.17838056  0.73433406    -0.37850
N1230       N  0.84502594  0.08987433  0.56180770    -0.37850
C1231       C  0.03120711  0.13580893  0.38054394    -0.04520
C1232       C  0.04667100  0.10471140  0.38093509    -0.01640
C1233       C  0.07340347  0.10043106  0.35940586     0.03350
C1234       C  0.07095151  0.11383685  0.32686433    -0.04520
C1235       C  0.05686702  0.14557304  0.32548537    -0.01620
C1236       C  0.03552014  0.15598914  0.35131705     0.03350
C1237       C  0.04242244  0.08170016  0.40817726     0.38000
C1238       C  0.06473801  0.16704936  0.29774067     0.37990
C1239       C  0.01604205  0.18557927  0.34564576     0.36410
C1240       C  0.10211513  0.11136351  0.37758228     0.36410
N1241       N  0.00049749  0.20910685  0.34081185    -0.38410
N1242       N  0.12379057  0.12142002  0.39316925    -0.38410
N1243       N  0.07192611  0.18402773  0.27573024    -0.37850
N1244       N  0.03900269  0.06307342  0.42977205    -0.37850
C1245       C  0.31575987  0.77995486  0.60634389    -0.04520
C1246       C  0.30812887  0.80162738  0.63303216    -0.01640
C1247       C  0.30040483  0.83532584  0.62664331     0.03350
C1248       C  0.29589279  0.84605956  0.59362504    -0.04520
C1249       C  0.29323653  0.82211835  0.56878819    -0.01620
C1250       C  0.30234233  0.78933447  0.57542226     0.03350
C1251       C  0.30347338  0.78832864  0.66609492     0.38000
C1252       C  0.27746275  0.83044791  0.53751803     0.37990
C1253       C  0.29153095  0.76514521  0.55258106     0.36410
C1254       C  0.29704099  0.85854654  0.65372669     0.36410
N1255       N  0.28209439  0.74620823  0.53384131    -0.38410
N1256       N  0.29445923  0.87710439  0.67539788    -0.38410
N1257       N  0.26393578  0.83672117  0.51311378    -0.37850
N1258       N  0.29890362  0.77804668  0.69255639    -0.37850
C1259       C  0.32428318  0.13333768  0.40479067    -0.04520
C1260       C  0.30397063  0.11303697  0.38513728    -0.01640
C1261       C  0.29962053  0.07934661  0.39317710     0.03350
C1262       C  0.31276769  0.06604381  0.42305191    -0.04520
C1263       C  0.33355964  0.08638195  0.44243345    -0.01620
C1264       C  0.33829802  0.11988639  0.43389771     0.03350
C1265       C  0.28287080  0.12815376  0.36039204     0.38000
C1266       C  0.35052563  0.07332791  0.47131508     0.37990
C1267       C  0.35702218  0.14055815  0.45603028     0.36410
C1268       C  0.28182977  0.05866201  0.37001808     0.36410
N1269       N  0.37235956  0.15573118  0.47463995    -0.38410
N1270       N  0.26771625  0.04236072  0.35130142    -0.38410
N1271       N  0.36427545  0.06321878  0.49432224    -0.37850
N1272       N  0.26468513  0.14028149  0.34194656    -0.37850
C1273       C  0.29840020  0.07613526  0.57743647    -0.04520
C1274       C  0.30299209  0.08724497  0.61010085    -0.01640
C1275       C  0.31185764  0.12034789  0.61573540     0.03350
C1276       C  0.32065227  0.14112666  0.58865873    -0.04520
C1277       C  0.31140649  0.13094168  0.55631105    -0.01620
C1278       C  0.29933581  0.09889020  0.55106719     0.03350
C1279       C  0.29876641  0.06472075  0.63787963     0.38000
C1280       C  0.31228770  0.15333630  0.52840769     0.37990
C1281       C  0.28520669  0.09008726  0.51923565     0.36410
C1282       C  0.30834536  0.13354415  0.64891041     0.36410
N1283       N  0.27301346  0.08329537  0.49427710    -0.38410
N1284       N  0.30360976  0.14329554  0.67548908    -0.38410
N1285       N  0.31135020  0.17111092  0.50595517    -0.37850
N1286       N  0.29548067  0.04678613  0.66007864    -0.37850
C1287       C  0.29734848  0.83689646  0.43453833    -0.04520
C1288       C  0.27247525  0.81333910  0.42649910    -0.01640
C1289       C  0.28116303  0.78482400  0.40769155     0.03350
C1290       C  0.31406988  0.78170265  0.39581231    -0.04520
C1291       C  0.33131857  0.81197177  0.39369978    -0.01620
C1292       C  0.32919980  0.83244228  0.42119734     0.03350
C1293       C  0.23933027  0.81734343  0.43937365     0.38000
C1294       C  0.32271721  0.83191643  0.36500843     0.37990
C1295       C  0.35535481  0.85609973  0.42669556     0.36410
C1296       C  0.25730583  0.75911590  0.40120812     0.36410
N1297       N  0.37625995  0.87500569  0.43105531    -0.38410
N1298       N  0.23825332  0.73855940  0.39591095    -0.38410
N1299       N  0.31454943  0.84879800  0.34329160    -0.37850
N1300       N  0.21310827  0.82086347  0.45028659    -0.37850
C1301       C  0.11492600  0.05644625  0.32284073    -0.04520
C1302       C  0.09886928  0.03240504  0.34298996    -0.01640
C1303       C  0.11143192  0.02393147  0.37458020     0.03350
C1304       C  0.14162537  0.03735842  0.38550455    -0.04520
C1305       C  0.15816510  0.06055788  0.36505064    -0.01620
C1306       C  0.14393255  0.07155053  0.33499398     0.03350
C1307       C  0.06741538  0.01869472  0.33315409     0.38000
C1308       C  0.18793094  0.07629262  0.37696413     0.37990
C1309       C  0.15435440  0.10326367  0.32178345     0.36410
C1310       C  0.09362146  0.00039997  0.39520419     0.36410
N1311       N  0.16194333  0.12944871  0.31300434    -0.38410
N1312       N  0.07934257  0.98153334  0.41143773    -0.38410
N1313       N  0.21137570  0.08917575  0.38670951    -0.37850
N1314       N  0.04204896  0.00732964  0.32686262    -0.37850
C1315       C  0.12809549  0.88328529  0.61503108    -0.04520
C1316       C  0.11719486  0.90808794  0.63706012    -0.01640
C1317       C  0.10419564  0.90007298  0.66860768     0.03350
C1318       C  0.10389276  0.86689181  0.67993434    -0.04520
C1319       C  0.11894679  0.84257090  0.65914165    -0.01620
C1320       C  0.12905227  0.85045305  0.62633596     0.03350
C1321       C  0.12310899  0.94233529  0.62868279     0.38000
C1322       C  0.12694672  0.81002428  0.67166939     0.37990
C1323       C  0.14232097  0.82500821  0.60469918     0.36410
C1324       C  0.09215232  0.92676591  0.68921611     0.36410
N1325       N  0.15280294  0.80470371  0.58741000    -0.38410
N1326       N  0.08321088  0.94919943  0.70456308    -0.38410
N1327       N  0.13458961  0.78377127  0.68015615    -0.37850
N1328       N  0.12961467  0.96931609  0.62213305    -0.37850
C1329       C  0.12783233  0.05029030  0.60279754    -0.04520
C1330       C  0.09831491  0.03549364  0.61417738    -0.01640
C1331       C  0.08894402  0.03824947  0.64796651     0.03350
C1332       C  0.10662959  0.05914769  0.66973714    -0.04520
C1333       C  0.13360073  0.07751840  0.65687367    -0.01620
C1334       C  0.14356698  0.07364056  0.62339205     0.03350
C1335       C  0.07929651  0.01471312  0.59212791     0.38000
C1336       C  0.15492729  0.09514026  0.67954327     0.37990
C1337       C  0.17202829  0.09154905  0.61083924     0.36410
C1338       C  0.06329089  0.01686052  0.66094098     0.36410
N1339       N  0.19469530  0.10585460  0.60078330    -0.38410
N1340       N  0.04291218  0.99930467  0.67071477    -0.38410
N1341       N  0.17238027  0.10853547  0.69771182    -0.37850
N1342       N  0.06406975  0.99797706  0.57473755    -0.37850
C1343       C  0.13780931  0.88342311  0.38562100    -0.04520
C1344       C  0.13706418  0.85051368  0.37432064    -0.01640
C1345       C  0.12845700  0.84361907  0.34102032     0.03350
C1346       C  0.11325747  0.86830678  0.32102133    -0.04520
C1347       C  0.11491274  0.90141009  0.33226651    -0.01620
C1348       C  0.13033468  0.90871611  0.36256738     0.03350
C1349       C  0.14632074  0.82375398  0.39631959     0.38000
C1350       C  0.10064330  0.92821749  0.31303288     0.37990
C1351       C  0.14453245  0.94106889  0.36647435     0.36410
C1352       C  0.13831281  0.81234469  0.32671615     0.36410
N1353       N  0.15820683  0.96600373  0.36767216    -0.38410
N1354       N  0.14788414  0.78770927  0.31574694    -0.38410
N1355       N  0.08920168  0.94952989  0.29770515    -0.37850
N1356       N  0.15296845  0.80190100  0.41362120    -0.37850
C1357       C  0.39806961  0.83398156  0.33024561    -0.04520
C1358       C  0.37466231  0.81545276  0.31194778    -0.01640
C1359       C  0.36142282  0.78585812  0.32523091     0.03350
C1360       C  0.37412851  0.77234677  0.35500136    -0.04520
C1361       C  0.40021848  0.78904205  0.37116292    -0.01620
C1362       C  0.41139140  0.81988674  0.35949141     0.03350
C1363       C  0.35994372  0.82899489  0.28212141     0.38000
C1364       C  0.41321859  0.77766330  0.40259336     0.37990
C1365       C  0.43459354  0.83810113  0.37994494     0.36410
C1366       C  0.32962609  0.77498405  0.31304670     0.36410
N1367       N  0.45283148  0.85237782  0.39661817    -0.38410
N1368       N  0.30344159  0.76850044  0.30380906    -0.38410
N1369       N  0.42545280  0.77192908  0.42783859    -0.37850
N1370       N  0.34706060  0.84015697  0.25912734    -0.37850
C1371       C  0.54305277  0.07011589  0.33827889    -0.04520
C1372       C  0.52283379  0.08890047  0.35999860    -0.01640
C1373       C  0.52864388  0.12274071  0.36446197     0.03350
C1374       C  0.55735238  0.13744994  0.35143613    -0.04520
C1375       C  0.57732896  0.11934227  0.32911727    -0.01620
C1376       C  0.57107982  0.08552709  0.32364433     0.03350
C1377       C  0.49860359  0.07316641  0.38113533     0.38000
C1378       C  0.60302472  0.13602676  0.31032352     0.37990
C1379       C  0.59525866  0.06637323  0.30521258     0.36410
C1380       C  0.50521263  0.14286122  0.38271118     0.36410
N1381       N  0.61483288  0.05122486  0.29074473    -0.38410
N1382       N  0.48686484  0.15987149  0.39658376    -0.38410
N1383       N  0.62299644  0.14928505  0.29456460    -0.37850
N1384       N  0.48053227  0.06029006  0.39925212    -0.37850
C1385       C  0.39167167  0.07265256  0.33859634    -0.04520
C1386       C  0.37518738  0.09360434  0.31594337    -0.01640
C1387       C  0.36232119  0.12438794  0.32646774     0.03350
C1388       C  0.37280834  0.13881867  0.35683131    -0.04520
C1389       C  0.39443023  0.11960392  0.37673064    -0.01620
C1390       C  0.39926297  0.08563617  0.37006330     0.03350
C1391       C  0.37176490  0.08431422  0.28138680     0.38000
C1392       C  0.41143396  0.13387543  0.40459586     0.37990
C1393       C  0.40772746  0.06358599  0.39708851     0.36410
C1394       C  0.33605770  0.13811283  0.30669697     0.36410
N1395       N  0.41324229  0.04586512  0.41897598    -0.38410
N1396       N  0.31449264  0.14566566  0.28955535    -0.38410
N1397       N  0.42599903  0.14397651  0.42697700    -0.37850
N1398       N  0.36958739  0.07786598  0.25353324    -0.37850
C1399       C  0.54788863  0.83898821  0.32749006    -0.04520
C1400       C  0.57783041  0.83470926  0.34475877    -0.01640
C1401       C  0.59004181  0.80241455  0.35070396     0.03350
C1402       C  0.56921090  0.77502535  0.34581060    -0.04520
C1403       C  0.54745993  0.77929757  0.31873372    -0.01620
C1404       C  0.53438654  0.81100531  0.31174207     0.03350
C1405       C  0.59743702  0.86318507  0.35358575     0.38000
C1406       C  0.54276550  0.75262840  0.29561426     0.37990
C1407       C  0.50746773  0.81465637  0.28851284     0.36410
C1408       C  0.62483789  0.79697933  0.34545551     0.36410
N1409       N  0.48584977  0.81757300  0.27009108    -0.38410
N1410       N  0.65237518  0.79278459  0.33903859    -0.38410
N1411       N  0.54036260  0.73148854  0.27660503    -0.37850
N1412       N  0.61296464  0.88613127  0.36036239    -0.37850
C1413       C  0.57012920  0.04695667  0.16785644    -0.04520
C1414       C  0.57973853  0.03450384  0.13672404    -0.01640
C1415       C  0.61292988  0.03689377  0.12610134     0.03350
C1416       C  0.63598503  0.05680624  0.14358452    -0.04520
C1417       C  0.62556283  0.07147606  0.17360881    -0.01620
C1418       C  0.59287073  0.06682885  0.18542733     0.03350
C1419       C  0.55545930  0.01950707  0.11529461     0.38000
C1420       C  0.64916302  0.08935950  0.19355705     0.37990
C1421       C  0.58207043  0.08336634  0.21538361     0.36410
C1422       C  0.62387683  0.01533989  0.09962901     0.36410
N1423       N  0.57300753  0.09697646  0.23892884    -0.38410
N1424       N  0.63212915  0.99710614  0.07912199    -0.38410
N1425       N  0.66804291  0.10331633  0.20974562    -0.37850
N1426       N  0.53577785  0.00864534  0.09774628    -0.37850
C1427       C  0.28453666  0.05087224  0.13264083    -0.04520
C1428       C  0.31362278  0.04012327  0.11572544    -0.01640
C1429       C  0.34334909  0.03462038  0.13329536     0.03350
C1430       C  0.34343002  0.03354389  0.16846259    -0.04520
C1431       C  0.31336993  0.04141261  0.18539534    -0.01620
C1432       C  0.28518338  0.05174935  0.16769798     0.03350
C1433       C  0.31384940  0.03475592  0.08015529     0.38000
C1434       C  0.31028359  0.03879809  0.22125304     0.37990
C1435       C  0.25734738  0.06536790  0.18597546     0.36410
C1436       C  0.37369333  0.02996665  0.11456836     0.36410
N1437       N  0.23581047  0.07702484  0.20086237    -0.38410
N1438       N  0.39773387  0.02651737  0.09931256    -0.38410
N1439       N  0.30685584  0.03632127  0.24970805    -0.37850
N1440       N  0.31530909  0.03012848  0.05183292    -0.37850
C1441       C  0.69317085  0.80468143  0.08794204    -0.04520
C1442       C  0.72743132  0.81079519  0.09185747    -0.01640
C1443       C  0.74973698  0.80579815  0.06494618     0.03350
C1444       C  0.74216167  0.78318173  0.03920822    -0.04520
C1445       C  0.71081072  0.76840925  0.04073115    -0.01620
C1446       C  0.68579186  0.78106954  0.06197974     0.03350
C1447       C  0.74131090  0.81646319  0.12429071     0.38000
C1448       C  0.70248412  0.74170334  0.01832864     0.37990
C1449       C  0.65309896  0.76830974  0.05496333     0.36410
C1450       C  0.77716681  0.82829005  0.06209999     0.36410
N1451       N  0.62809581  0.75685066  0.04738533    -0.38410
N1452       N  0.79762788  0.84812602  0.06018926    -0.38410
N1453       N  0.69282654  0.72016484  0.00231506    -0.37850
N1454       N  0.75315540  0.82018003  0.15009049    -0.37850
C1455       C  0.63504209  0.85984451  0.14759068    -0.04520
C1456       C  0.61910252  0.88780202  0.13381487    -0.01640
C1457       C  0.58537992  0.89375655  0.14012692     0.03350
C1458       C  0.56811986  0.87455792  0.16358179    -0.04520
C1459       C  0.58401050  0.84721252  0.17824720    -0.01620
C1460       C  0.61715227  0.83981640  0.17040850     0.03350
C1461       C  0.63714408  0.91084322  0.11316412     0.38000
C1462       C  0.56618016  0.82688468  0.20204456     0.37990
C1463       C  0.63286349  0.81221596  0.18701888     0.36410
C1464       C  0.56842150  0.91995954  0.12261490     0.36410
N1465       N  0.64489623  0.79054069  0.20136366    -0.38410
N1466       N  0.55463192  0.94026027  0.10796720    -0.38410
N1467       N  0.55210218  0.81048994  0.22093884    -0.37850
N1468       N  0.65082576  0.92977664  0.09658949    -0.37850
C1469       C  0.35015227  0.87857265  0.16421118    -0.04520
C1470       C  0.32980335  0.89949632  0.14513113    -0.01640
C1471       C  0.29759514  0.88946592  0.13637128     0.03350
C1472       C  0.28453538  0.85892667  0.14701102    -0.04520
C1473       C  0.30529831  0.83773196  0.16579266    -0.01620
C1474       C  0.33832330  0.84687590  0.17266630     0.03350
C1475       C  0.34180477  0.93159082  0.13487846     0.38000
C1476       C  0.29215916  0.80824399  0.18127430     0.37990
C1477       C  0.36062412  0.82331669  0.18784104     0.36410
C1478       C  0.27716456  0.91030225  0.11614137     0.36410
N1479       N  0.37858504  0.80432599  0.19944974    -0.38410
N1480       N  0.25917463  0.92505535  0.09974566    -0.38410
N1481       N  0.28219405  0.78537226  0.19540148    -0.37850
N1482       N  0.35151034  0.95710607  0.12639507    -0.37850
C1483       C  0.55736742  0.61321068  0.18504017    -0.04520
C1484       C  0.52503347  0.61044586  0.17345580    -0.01640
C1485       C  0.51776951  0.61476555  0.13986090     0.03350
C1486       C  0.54156452  0.62841773  0.11801909    -0.04520
C1487       C  0.57279029  0.63733335  0.13112887    -0.01620
C1488       C  0.58069500  0.62948586  0.16449096     0.03350
C1489       C  0.49903916  0.60228672  0.19610521     0.38000
C1490       C  0.59756756  0.65280679  0.11018235     0.37990
C1491       C  0.61229775  0.63899757  0.17799839     0.36410
C1492       C  0.48659372  0.60187877  0.12832402     0.36410
N1493       N  0.63732016  0.64741840  0.18872871    -0.38410
N1494       N  0.46219810  0.58959234  0.12038063    -0.38410
N1495       N  0.61740386  0.66528285  0.09361914    -0.37850
N1496       N  0.47835644  0.59739766  0.21503091    -0.37850
C1497       C  0.39049839  0.62020188  0.11763852    -0.04520
C1498       C  0.38812376  0.64219945  0.14463440    -0.01640
C1499       C  0.37729986  0.63074273  0.17602371     0.03350
C1500       C  0.37330090  0.59646810  0.18212412    -0.04520
C1501       C  0.37901089  0.57418984  0.15530535    -0.01620
C1502       C  0.38519595  0.58625009  0.12304706     0.03350
C1503       C  0.39862719  0.67622073  0.14072571     0.38000
C1504       C  0.37843215  0.53869458  0.16002300     0.37990
C1505       C  0.38572291  0.56352028  0.09516470     0.36410
C1506       C  0.36661695  0.65461826  0.20054345     0.36410
N1507       N  0.38591299  0.54544054  0.07295499    -0.38410
N1508       N  0.35637253  0.67393697  0.21906315    -0.38410
N1509       N  0.37897444  0.51023040  0.16277636    -0.37850
N1510       N  0.40756710  0.70322743  0.13779303    -0.37850
C1511       C  0.39255928  0.61200021  0.88705877    -0.04520
C1512       C  0.39232960  0.57774653  0.88091452    -0.01640
C1513       C  0.38600895  0.56606259  0.84889197     0.03350
C1514       C  0.37714010  0.58850332  0.82332774    -0.04520
C1515       C  0.37771265  0.62281461  0.82949091    -0.01620
C1516       C  0.38596196  0.63454483  0.86108870     0.03350
C1517       C  0.39747767  0.55427038  0.90775084     0.38000
C1518       C  0.36805578  0.64609176  0.80382221     0.37990
C1519       C  0.38868635  0.66987339  0.86620427     0.36410
C1520       C  0.38952468  0.53097233  0.84235029     0.36410
N1521       N  0.39099779  0.69813150  0.86961075    -0.38410
N1522       N  0.39337304  0.50303346  0.83763438    -0.38410
N1523       N  0.35934692  0.66460983  0.78375815    -0.37850
N1524       N  0.40139745  0.53548931  0.92909022    -0.37850
C1525       C  0.53976972  0.61558986  0.88235876    -0.04520
C1526       C  0.52648222  0.58665182  0.86770535    -0.01640
C1527       C  0.53679723  0.57661303  0.83548086     0.03350
C1528       C  0.55583367  0.59795327  0.81496074    -0.04520
C1529       C  0.56536557  0.62874787  0.82870433    -0.01620
C1530       C  0.56181262  0.63461606  0.86299923     0.03350
C1531       C  0.50339095  0.56597551  0.88589954     0.38000
C1532       C  0.57929545  0.65516052  0.80893775     0.37990
C1533       C  0.58431629  0.65749630  0.87874126     0.36410
C1534       C  0.52887298  0.54349769  0.82482295     0.36410
N1535       N  0.60318598  0.67437378  0.89186366    -0.38410
N1536       N  0.52228750  0.51643756  0.81854020    -0.38410
N1537       N  0.59017496  0.67821044  0.79582555    -0.37850
N1538       N  0.48477068  0.54936488  0.90002359    -0.37850
C1539       C  0.56506426  0.79011415  0.08752992    -0.04520
C1540       C  0.57747102  0.81955456  0.07351400    -0.01640
C1541       C  0.61023544  0.82946364  0.07979838     0.03350
C1542       C  0.63045709  0.81112672  0.10190601    -0.04520
C1543       C  0.61731836  0.78231591  0.11702314    -0.01620
C1544       C  0.58438623  0.77284283  0.11101872     0.03350
C1545       C  0.55748544  0.83840668  0.05045361     0.38000
C1546       C  0.63920127  0.75947433  0.13391355     0.37990
C1547       C  0.57092083  0.74383364  0.12741845     0.36410
C1548       C  0.62389116  0.85624877  0.06022682     0.36410
N1549       N  0.56002306  0.72086128  0.14064602    -0.38410
N1550       N  0.63323211  0.87745017  0.04331780    -0.38410
N1551       N  0.65672136  0.74083718  0.14671773    -0.37850
N1552       N  0.54158410  0.85368592  0.03223094    -0.37850
C1553       C  0.34751000  0.78810739  0.07808368    -0.04520
C1554       C  0.33826748  0.82052288  0.06864539    -0.01640
C1555       C  0.30591462  0.83260411  0.07549263     0.03350
C1556       C  0.28308204  0.81394156  0.09490403    -0.04520
C1557       C  0.29319728  0.78207669  0.10562949    -0.01620
C1558       C  0.32453848  0.76928452  0.09691917     0.03350
C1559       C  0.36122324  0.84104886  0.05014292     0.38000
C1560       C  0.27191136  0.76126731  0.12574404     0.37990
C1561       C  0.33230696  0.73565226  0.10691743     0.36410
C1562       C  0.29534124  0.86268570  0.05914931     0.36410
N1563       N  0.33690004  0.70849477  0.11462101    -0.38410
N1564       N  0.28780822  0.88611430  0.04448577    -0.38410
N1565       N  0.25692231  0.74296832  0.14199274    -0.37850
N1566       N  0.37939493  0.85761491  0.03538658    -0.37850
C1567       C  0.70378679  0.87226538  0.86379651    -0.04520
C1568       C  0.70845978  0.87474949  0.82878382    -0.01640
C1569       C  0.72407979  0.90248192  0.81427891     0.03350
C1570       C  0.74241247  0.92472828  0.83376984    -0.04520
C1571       C  0.74278886  0.91929749  0.86854579    -0.01620
C1572       C  0.72232451  0.89468801  0.88353347     0.03350
C1573       C  0.69841999  0.84874007  0.80655711     0.38000
C1574       C  0.76283926  0.94048780  0.88920068     0.37990
C1575       C  0.71779878  0.89593201  0.91903019     0.36410
C1576       C  0.71597172  0.91125119  0.78038249     0.36410
N1577       N  0.71360505  0.89920709  0.94722691    -0.38410
N1578       N  0.70653839  0.91982466  0.75472660    -0.38410
N1579       N  0.77889884  0.95721418  0.90581341    -0.37850
N1580       N  0.69266064  0.82893752  0.78676724    -0.37850
C1581       C  0.70115264  0.82351210  0.92963119    -0.04520
C1582       C  0.73340138  0.81296471  0.91935138    -0.01640
C1583       C  0.75749871  0.80255449  0.94365031     0.03350
C1584       C  0.74859010  0.80049264  0.97787943    -0.04520
C1585       C  0.72356495  0.82265742  0.98594498    -0.01620
C1586       C  0.69660393  0.82538807  0.96477312     0.03350
C1587       C  0.74091491  0.80891265  0.88449819     0.38000
C1588       C  0.73600185  0.85316318  0.99917415     0.37990
C1589       C  0.66528586  0.82168769  0.98123953     0.36410
C1590       C  0.79180674  0.80299752  0.93463656     0.36410
N1591       N  0.64078646  0.81709651  0.99538721    -0.38410
N1592       N  0.81912740  0.80596910  0.92701861    -0.38410
N1593       N  0.74805431  0.87756580  0.00779364    -0.37850
N1594       N  0.74703297  0.80496216  0.85669310    -0.37850
C1595       C  0.63908356  0.81772532  0.91369692    -0.04520
C1596       C  0.61310222  0.83673932  0.92822260    -0.01640
C1597       C  0.58060698  0.82406501  0.93005499     0.03350
C1598       C  0.57352389  0.79260396  0.91704278    -0.04520
C1599       C  0.59848212  0.77573772  0.89946944    -0.01620
C1600       C  0.63152507  0.78625255  0.90097356     0.03350
C1601       C  0.62011119  0.86736457  0.94531248     0.38000
C1602       C  0.58905613  0.75018268  0.87636256     0.37990
C1603       C  0.65756513  0.76491062  0.88858803     0.36410
C1604       C  0.55458501  0.84364010  0.94511103     0.36410
N1605       N  0.67811679  0.74777013  0.87839748    -0.38410
N1606       N  0.53378168  0.85959897  0.95663534    -0.38410
N1607       N  0.58075853  0.73135176  0.85656005    -0.37850
N1608       N  0.62482223  0.89088657  0.96084548    -0.37850
C1609       C  0.73559258  0.98720188  0.83281450    -0.04520
C1610       C  0.75090339  0.01665189  0.84470405    -0.01640
C1611       C  0.73118130  0.04475855  0.85432625     0.03350
C1612       C  0.69757644  0.04031782  0.86414007    -0.04520
C1613       C  0.68557941  0.00763919  0.86111962    -0.01620
C1614       C  0.70116813  0.98475836  0.84002853     0.03350
C1615       C  0.78629180  0.01757237  0.84843831     0.38000
C1616       C  0.65657660  0.99711918  0.87927536     0.37990
C1617       C  0.67957558  0.96098751  0.82452858     0.36410
C1618       C  0.74564609  0.07737154  0.85430595     0.36410
N1619       N  0.66005880  0.94367082  0.81300654    -0.38410
N1620       N  0.75727166  0.10347167  0.85413575    -0.38410
N1621       N  0.63314923  0.98891503  0.89355053    -0.37850
N1622       N  0.81449727  0.01739496  0.85258149    -0.37850
C1623       C  0.29221368  0.80206878  0.89505807    -0.04520
C1624       C  0.31458993  0.79520133  0.86869450    -0.01640
C1625       C  0.34716639  0.78380853  0.87583168     0.03350
C1626       C  0.35776655  0.78174767  0.90921852    -0.04520
C1627       C  0.33473262  0.78815128  0.93449531    -0.01620
C1628       C  0.30155931  0.79082218  0.92691214     0.03350
C1629       C  0.30289248  0.79585141  0.83491054     0.38000
C1630       C  0.34382954  0.78718550  0.96913708     0.37990
C1631       C  0.28201700  0.76663244  0.94457036     0.36410
C1632       C  0.36959237  0.77492426  0.84924512     0.36410
N1633       N  0.26963176  0.74552019  0.95950340    -0.38410
N1634       N  0.38749092  0.76800660  0.82787158    -0.38410
N1635       N  0.35049878  0.78668797  0.99690025    -0.37850
N1636       N  0.29343831  0.79475454  0.80789569    -0.37850
C1637       C  0.53775726  0.83732191  0.66625148    -0.04520
C1638       C  0.51283379  0.81528516  0.65664930    -0.01640
C1639       C  0.52118871  0.78482610  0.64294881     0.03350
C1640       C  0.55448737  0.77454547  0.64235792    -0.04520
C1641       C  0.57861915  0.79397477  0.65835073    -0.01620
C1642       C  0.57073370  0.82623004  0.66835699     0.03350
C1643       C  0.47852637  0.82281510  0.66305752     0.38000
C1644       C  0.61113881  0.78058596  0.66501782     0.37990
C1645       C  0.59674360  0.84794193  0.67973011     0.36410
C1646       C  0.49543684  0.76471262  0.62860980     0.36410
N1647       N  0.61761322  0.86517636  0.68869587    -0.38410
N1648       N  0.47482631  0.74873142  0.61724404    -0.38410
N1649       N  0.63691286  0.76994106  0.67115130    -0.37850
N1650       N  0.45124637  0.82834022  0.66921447    -0.37850
C1651       C  0.40253107  0.07703103  0.64895671    -0.04520
C1652       C  0.39945638  0.08291265  0.61455534    -0.01640
C1653       C  0.39162011  0.11494104  0.60268389     0.03350
C1654       C  0.38310746  0.14067644  0.62514147    -0.04520
C1655       C  0.38725618  0.13442363  0.65964656    -0.01620
C1656       C  0.39950064  0.10378489  0.67087085     0.03350
C1657       C  0.40353588  0.05592126  0.59128347     0.38000
C1658       C  0.37511493  0.15678732  0.68472529     0.37990
C1659       C  0.41124470  0.10033196  0.70468938     0.36410
C1660       C  0.39189585  0.12096732  0.56723750     0.36410
N1661       N  0.42191414  0.09740273  0.73111847    -0.38410
N1662       N  0.39250040  0.12528803  0.53885338    -0.38410
N1663       N  0.36484945  0.17216724  0.70663451    -0.37850
N1664       N  0.40665610  0.03441006  0.57265159    -0.37850
C1665       C  0.54332631  0.06815467  0.65657000    -0.04520
C1666       C  0.54123535  0.07695181  0.62274446    -0.01640
C1667       C  0.54277085  0.11021407  0.61350999     0.03350
C1668       C  0.55242053  0.13424502  0.63697707    -0.04520
C1669       C  0.55491969  0.12546420  0.67078593    -0.01620
C1670       C  0.54831660  0.09287088  0.68076505     0.03350
C1671       C  0.53694436  0.05201197  0.59727266     0.38000
C1672       C  0.56434076  0.14980176  0.69530237     0.37990
C1673       C  0.54322532  0.08592219  0.71575906     0.36410
C1674       C  0.53076941  0.12001236  0.58105302     0.36410
N1675       N  0.53830393  0.08103630  0.74366817    -0.38410
N1676       N  0.51996513  0.12723388  0.55551084    -0.38410
N1677       N  0.57286453  0.16867967  0.71497102    -0.37850
N1678       N  0.53366486  0.03222380  0.57687541    -0.37850
C1679       C  0.38113098  0.85107615  0.66073888    -0.04520
C1680       C  0.37568345  0.82738306  0.68582464    -0.01640
C1681       C  0.37581654  0.79336686  0.67804732     0.03350
C1682       C  0.37797586  0.78270516  0.64433105    -0.04520
C1683       C  0.38757017  0.80662187  0.62055494    -0.01620
C1684       C  0.38594653  0.84047834  0.62781862     0.03350
C1685       C  0.37158578  0.83766679  0.72022010     0.38000
C1686       C  0.40725838  0.79717699  0.59222082     0.37990
C1687       C  0.39047473  0.86443913  0.60124302     0.36410
C1688       C  0.37747373  0.77113319  0.70600188     0.36410
N1689       N  0.39394306  0.88345946  0.58000468    -0.38410
N1690       N  0.37977432  0.75668758  0.73072652    -0.38410
N1691       N  0.42563144  0.79258923  0.57063705    -0.37850
N1692       N  0.36823752  0.84553606  0.74764292    -0.37850
C1693       C  0.29287954  0.05509139  0.85206607    -0.04520
C1694       C  0.31372084  0.03168907  0.86806281    -0.01640
C1695       C  0.34693524  0.02722931  0.85765994     0.03350
C1696       C  0.35969019  0.04544514  0.83059887    -0.04520
C1697       C  0.33931715  0.06896287  0.81511558    -0.01620
C1698       C  0.30587103  0.07218303  0.82413397     0.03350
C1699       C  0.30146971  0.01099903  0.89465589     0.38000
C1700       C  0.35280102  0.09029222  0.78938104     0.37990
C1701       C  0.28557070  0.09270573  0.80309694     0.36410
C1702       C  0.36729810  0.00240778  0.87371982     0.36410
N1703       N  0.27225254  0.10960544  0.78420816    -0.38410
N1704       N  0.38331870  0.98247356  0.88655246    -0.38410
N1705       N  0.36255604  0.10812755  0.76913379    -0.37850
N1706       N  0.29395552  0.99372352  0.91632955    -0.37850
C1707       C  0.57712578  0.88043252  0.83570934    -0.04520
C1708       C  0.59440021  0.90156597  0.85725529    -0.01640
C1709       C  0.62606351  0.89272150  0.86915708     0.03350
C1710       C  0.64103443  0.86221941  0.86066452    -0.04520
C1711       C  0.62321341  0.84075829  0.83927909    -0.01620
C1712       C  0.59173713  0.84996592  0.82692753     0.03350
C1713       C  0.57997632  0.93309173  0.86623733     0.38000
C1714       C  0.63691023  0.80949334  0.82862263     0.37990
C1715       C  0.57426765  0.82803653  0.80462787     0.36410
C1716       C  0.64294103  0.91441504  0.89169390     0.36410
N1717       N  0.56036515  0.81054429  0.78686403    -0.38410
N1718       N  0.65665698  0.93030480  0.91096326    -0.38410
N1719       N  0.64658755  0.78442444  0.81875217    -0.37850
N1720       N  0.56799934  0.95809882  0.87323666    -0.37850
C1721       C  0.58102254  0.04310105  0.82213197    -0.04520
C1722       C  0.58187729  0.04471952  0.85720647    -0.01640
C1723       C  0.61125067  0.05359067  0.87327497     0.03350
C1724       C  0.64000182  0.06131189  0.85443593    -0.04520
C1725       C  0.63835693  0.06273983  0.81974958    -0.01620
C1726       C  0.60933828  0.05332761  0.80350823     0.03350
C1727       C  0.55319867  0.03642996  0.87728876     0.38000
C1728       C  0.66470040  0.07911015  0.80147649     0.37990
C1729       C  0.60948585  0.05442495  0.76747406     0.36410
C1730       C  0.61202210  0.05448593  0.90937477     0.36410
N1731       N  0.61069611  0.05510000  0.73876389    -0.38410
N1732       N  0.61228940  0.05422655  0.93808880    -0.38410
N1733       N  0.68487291  0.09391479  0.78748005    -0.37850
N1734       N  0.53051750  0.02995640  0.89363132    -0.37850
C1735       C  0.35284315  0.89939651  0.84452718    -0.04520
C1736       C  0.35553477  0.87379018  0.86836624    -0.01640
C1737       C  0.32743015  0.86485395  0.88764444     0.03350
C1738       C  0.29608046  0.87608606  0.87759457    -0.04520
C1739       C  0.29708316  0.90887354  0.86578526    -0.01620
C1740       C  0.32401393  0.91926777  0.84598579     0.03350
C1741       C  0.38705364  0.85834614  0.87479143     0.38000
C1742       C  0.27177042  0.93158239  0.87623372     0.37990
C1743       C  0.32156796  0.94958803  0.82702997     0.36410
C1744       C  0.33229008  0.86179266  0.92297858     0.36410
N1745       N  0.31951031  0.97342245  0.81124587    -0.38410
N1746       N  0.33636471  0.86125422  0.95139298    -0.38410
N1747       N  0.25084781  0.94851120  0.88570341    -0.37850
N1748       N  0.41227274  0.84600096  0.88000688    -0.37850
C1749       C  0.53944964  0.30627960  0.88980263    -0.04520
C1750       C  0.55899443  0.28556835  0.86920533    -0.01640
C1751       C  0.56677804  0.29499153  0.83635389     0.03350
C1752       C  0.55141780  0.32294999  0.82184096    -0.04520
C1753       C  0.52954082  0.34188993  0.84153070    -0.01620
C1754       C  0.52661414  0.33566008  0.87589532     0.03350
C1755       C  0.56959594  0.25331891  0.88009011     0.38000
C1756       C  0.51114951  0.36886543  0.82707162     0.37990
C1757       C  0.51373211  0.36131039  0.89739901     0.36410
C1758       C  0.58708964  0.27322015  0.81594052     0.36410
N1759       N  0.50489965  0.38199755  0.91513359    -0.38410
N1760       N  0.60220279  0.25514140  0.79959790    -0.38410
N1761       N  0.49653275  0.39095567  0.81632601    -0.37850
N1762       N  0.57808444  0.22690977  0.88671631    -0.37850
C1763       C  0.36502675  0.32368634  0.17699394    -0.04520
C1764       C  0.37257479  0.34235152  0.14752311    -0.01640
C1765       C  0.37297440  0.32720703  0.11639106     0.03350
C1766       C  0.37575391  0.29292133  0.11409280    -0.04520
C1767       C  0.36969430  0.27341422  0.14249488    -0.01620
C1768       C  0.36286743  0.28874195  0.17349514     0.03350
C1769       C  0.38486725  0.37579519  0.14714433     0.38000
C1770       C  0.37072100  0.23778755  0.13985657     0.37990
C1771       C  0.35362919  0.26844938  0.20172220     0.36410
C1772       C  0.37236938  0.34733320  0.08627400     0.36410
N1773       N  0.34576529  0.25228773  0.22413355    -0.38410
N1774       N  0.37177379  0.36338188  0.06245572    -0.38410
N1775       N  0.37140272  0.20931148  0.13760643    -0.37850
N1776       N  0.39669483  0.40153611  0.14297231    -0.37850
C1777       C  0.55799149  0.31384447  0.19070853    -0.04520
C1778       C  0.57713284  0.29211803  0.17092808    -0.01640
C1779       C  0.56708659  0.28407627  0.13836485     0.03350
C1780       C  0.53597930  0.29481376  0.12614418    -0.04520
C1781       C  0.51532757  0.31336653  0.14754145    -0.01620
C1782       C  0.52683291  0.32364732  0.17885042     0.03350
C1783       C  0.60795292  0.27876195  0.18310658     0.38000
C1784       C  0.48200457  0.32158873  0.13766912     0.37990
C1785       C  0.50800566  0.34686542  0.19814241     0.36410
C1786       C  0.59006549  0.26615160  0.11723504     0.36410
N1787       N  0.49520591  0.36647200  0.21453218    -0.38410
N1788       N  0.60871416  0.25202447  0.10063406    -0.38410
N1789       N  0.45543594  0.32737981  0.12906820    -0.37850
N1790       N  0.63264306  0.26718496  0.19159534    -0.37850
C1791       C  0.38034424  0.30832745  0.89236548    -0.04520
C1792       C  0.35288967  0.29274647  0.87711922    -0.01640
C1793       C  0.34575542  0.29874860  0.84344436     0.03350
C1794       C  0.36481720  0.32158403  0.82513097    -0.04520
C1795       C  0.39201048  0.33680661  0.84023084    -0.01620
C1796       C  0.39793037  0.33249735  0.87418946     0.03350
C1797       C  0.33117110  0.27112537  0.89586612     0.38000
C1798       C  0.41592322  0.35390832  0.81984380     0.37990
C1799       C  0.42025079  0.35493569  0.89045819     0.36410
C1800       C  0.32244559  0.27776165  0.82629161     0.36410
N1801       N  0.43684516  0.37397240  0.90360291    -0.38410
N1802       N  0.30447089  0.26037919  0.81257940    -0.38410
N1803       N  0.43513015  0.36634276  0.80265667    -0.37850
N1804       N  0.31355240  0.25412307  0.91077800    -0.37850
C1805       C  0.64822762  0.12582607  0.88484907    -0.04520
C1806       C  0.65080196  0.15698694  0.89986845    -0.01640
C1807       C  0.62237728  0.17059663  0.91584507     0.03350
C1808       C  0.59074789  0.15453821  0.91234392    -0.04520
C1809       C  0.58836700  0.13156446  0.88639480    -0.01620
C1810       C  0.61729548  0.12311895  0.86870297     0.03350
C1811       C  0.68178222  0.17454722  0.89792960     0.38000
C1812       C  0.55649159  0.12214673  0.87348597     0.37990
C1813       C  0.61642740  0.13110125  0.83367767     0.36410
C1814       C  0.62668007  0.19982886  0.93600876     0.36410
N1815       N  0.61512148  0.13832383  0.80588706    -0.38410
N1816       N  0.63007403  0.22343507  0.95177640    -0.38410
N1817       N  0.53102495  0.11471109  0.86306304    -0.37850
N1818       N  0.70673111  0.18822585  0.89591061    -0.37850
C1819       C  0.35319142  0.12214932  0.06634209    -0.04520
C1820       C  0.34319955  0.12122834  0.09990520    -0.01640
C1821       C  0.30979702  0.11515400  0.10830027     0.03350
C1822       C  0.28760281  0.10288904  0.08403660    -0.04520
C1823       C  0.29775297  0.10403125  0.05035329    -0.01620
C1824       C  0.32899439  0.11661036  0.04173391     0.03350
C1825       C  0.36681746  0.12860727  0.12571210     0.38000
C1826       C  0.27531207  0.09412553  0.02429853     0.37990
C1827       C  0.33337295  0.13019749  0.00874959     0.36410
C1828       C  0.29792254  0.12410712  0.14106746     0.36410
N1829       N  0.33554064  0.14339229  0.98336407    -0.38410
N1830       N  0.28879581  0.13230368  0.16705075    -0.38410
N1831       N  0.25627513  0.08708632  0.00424254    -0.37850
N1832       N  0.38571300  0.13407604  0.14639913    -0.37850
C1833       C  0.57273781  0.12822735  0.08250898    -0.04520
C1834       C  0.58559210  0.10113310  0.06465895    -0.01640
C1835       C  0.61798255  0.08996491  0.07060778     0.03350
C1836       C  0.63763767  0.10469225  0.09586194    -0.04520
C1837       C  0.62413540  0.13105512  0.11441256    -0.01620
C1838       C  0.59175452  0.14233306  0.10816488     0.03350
C1839       C  0.56656343  0.08600928  0.03831311     0.38000
C1840       C  0.64402591  0.14783504  0.13887630     0.37990
C1841       C  0.57799234  0.16897378  0.12797831     0.36410
C1842       C  0.63191482  0.06572366  0.04794700     0.36410
N1843       N  0.56694547  0.19009200  0.14387758    -0.38410
N1844       N  0.64272541  0.04725440  0.02884546    -0.38410
N1845       N  0.65937618  0.16187082  0.15841311    -0.37850
N1846       N  0.55160823  0.07378233  0.01727786    -0.37850
C1847       C  0.36334325  0.12836355  0.90761746    -0.04520
C1848       C  0.35022640  0.10123070  0.92533692    -0.01640
C1849       C  0.31678843  0.09179626  0.92106775     0.03350
C1850       C  0.29692794  0.10659235  0.89614994    -0.04520
C1851       C  0.31181123  0.13094331  0.87546968    -0.01620
C1852       C  0.34445641  0.14191068  0.88153234     0.03350
C1853       C  0.37034533  0.08452070  0.94992372     0.38000
C1854       C  0.29193106  0.14860168  0.85137386     0.37990
C1855       C  0.35843892  0.16807077  0.86135393     0.36410
C1856       C  0.30289218  0.06760264  0.94353880     0.36410
N1857       N  0.36954996  0.18878672  0.84496290    -0.38410
N1858       N  0.29332962  0.04782698  0.96198455    -0.38410
N1859       N  0.27602580  0.16376890  0.83304019    -0.37850
N1860       N  0.38624037  0.07114862  0.96961504    -0.37850
C1861       C  0.85012515  0.53338264  0.34091143    -0.04520
C1862       C  0.84063700  0.56705594  0.34072116    -0.01640
C1863       C  0.80747629  0.57611195  0.34743447     0.03350
C1864       C  0.78458902  0.55225205  0.35930303    -0.04520
C1865       C  0.79327191  0.51847246  0.35564911    -0.01620
C1866       C  0.82512421  0.50942422  0.34437505     0.03350
C1867       C  0.86480996  0.59257427  0.33386331     0.38000
C1868       C  0.76975349  0.49276594  0.36356317     0.37990
C1869       C  0.83075961  0.47655225  0.33149821     0.36410
C1870       C  0.79668988  0.60955933  0.34052850     0.36410
N1871       N  0.83489297  0.45103996  0.31930105    -0.38410
N1872       N  0.78834199  0.63615530  0.33403776    -0.38410
N1873       N  0.75093169  0.47215016  0.36959300    -0.37850
N1874       N  0.88400812  0.61305994  0.32845872    -0.37850
C1875       C  0.08391311  0.37851977  0.32564683    -0.04520
C1876       C  0.09907632  0.34858887  0.31587522    -0.01640
C1877       C  0.13307021  0.34362757  0.32300880     0.03350
C1878       C  0.14905021  0.36476412  0.34606052    -0.04520
C1879       C  0.13263571  0.39476599  0.35402594    -0.01620
C1880       C  0.10404991  0.40329866  0.33755102     0.03350
C1881       C  0.08052775  0.32360287  0.29845112     0.38000
C1882       C  0.13753106  0.41286715  0.38410053     0.37990
C1883       C  0.09831485  0.43699103  0.32721864     0.36410
C1884       C  0.15109467  0.31738081  0.30673409     0.36410
N1885       N  0.09401453  0.46303023  0.31621337    -0.38410
N1886       N  0.16508993  0.29672347  0.29267239    -0.38410
N1887       N  0.13925200  0.42823811  0.40811867    -0.37850
N1888       N  0.06577258  0.30356918  0.28449064    -0.37850
C1889       C  0.08503237  0.53209498  0.34962627    -0.04520
C1890       C  0.10456720  0.51336231  0.37199009    -0.01640
C1891       C  0.13776093  0.52217627  0.37808068     0.03350
C1892       C  0.15004924  0.55310189  0.36751463    -0.04520
C1893       C  0.13044144  0.57252111  0.34601696    -0.01620
C1894       C  0.09886748  0.56160537  0.33624631     0.03350
C1895       C  0.08997392  0.48673271  0.39117905     0.38000
C1896       C  0.14155864  0.60488819  0.33520281     0.37990
C1897       C  0.08031739  0.58260050  0.31392985     0.36410
C1898       C  0.15814667  0.50132896  0.39891176     0.36410
N1899       N  0.06640092  0.60013297  0.29614103    -0.38410
N1900       N  0.17451959  0.48537289  0.41611386    -0.38410
N1901       N  0.14923039  0.63093900  0.32611345    -0.37850
N1902       N  0.07771660  0.46608847  0.40688808    -0.37850
C1903       C  0.84935949  0.38276605  0.35296094    -0.04520
C1904       C  0.83172334  0.40150988  0.37697473    -0.01640
C1905       C  0.79799595  0.39493470  0.38335080     0.03350
C1906       C  0.78128589  0.36993910  0.36558749    -0.04520
C1907       C  0.79848056  0.35328100  0.34004934    -0.01620
C1908       C  0.83269251  0.35693683  0.33666012     0.03350
C1909       C  0.84793136  0.42724896  0.39584487     0.38000
C1910       C  0.78189343  0.33204384  0.31663832     0.37990
C1911       C  0.85075728  0.33128513  0.31929730     0.36410
C1912       C  0.78086667  0.41435464  0.40819408     0.36410
N1913       N  0.86448692  0.30971541  0.30650079    -0.38410
N1914       N  0.76849986  0.43074204  0.42822512    -0.38410
N1915       N  0.77103801  0.31472264  0.29668342    -0.37850
N1916       N  0.86049749  0.44792156  0.41099735    -0.37850
C1917       C  0.04225117  0.34251344  0.17309272    -0.04520
C1918       C  0.02090426  0.32205577  0.15470437    -0.01640
C1919       C  0.03199312  0.29109537  0.14255266     0.03350
C1920       C  0.06426245  0.27968544  0.14856074    -0.04520
C1921       C  0.08567903  0.30013368  0.16721896    -0.01620
C1922       C  0.07472513  0.33134916  0.17917605     0.03350
C1923       C  0.98707705  0.33253241  0.15014335     0.38000
C1924       C  0.11797342  0.28831927  0.17672708     0.37990
C1925       C  0.09661136  0.35167691  0.19879808     0.36410
C1926       C  0.01114185  0.26977502  0.12329852     0.36410
N1927       N  0.11411113  0.36790845  0.21441116    -0.38410
N1928       N  0.99840087  0.25000277  0.10719518    -0.38410
N1929       N  0.14350434  0.27934414  0.18580650    -0.37850
N1930       N  0.96032542  0.34217843  0.14761001    -0.37850
C1931       C  0.03867720  0.57484188  0.17860551    -0.04520
C1932       C  0.04257860  0.57811693  0.14399558    -0.01640
C1933       C  0.04580020  0.61008992  0.12964326     0.03350
C1934       C  0.05656999  0.63758953  0.14920181    -0.04520
C1935       C  0.05560130  0.63278732  0.18406452    -0.01620
C1936       C  0.04109440  0.60429760  0.19763638     0.03350
C1937       C  0.04128473  0.54928888  0.12275454     0.38000
C1938       C  0.07107977  0.65495890  0.20730601     0.37990
C1939       C  0.02445468  0.60795030  0.22943753     0.36410
C1940       C  0.03365522  0.61387867  0.09626225     0.36410
N1941       N  0.01001794  0.61154215  0.25404558    -0.38410
N1942       N  0.02240327  0.61401510  0.06991907    -0.38410
N1943       N  0.08363767  0.67033811  0.22784472    -0.37850
N1944       N  0.04047127  0.52641350  0.10560177    -0.37850
C1945       C  0.86766729  0.28932394  0.13989391    -0.04520
C1946       C  0.87525505  0.32032229  0.12417270    -0.01640
C1947       C  0.87698602  0.34965934  0.14293370     0.03350
C1948       C  0.88187386  0.34778785  0.17741814    -0.04520
C1949       C  0.87845339  0.31612852  0.19288876    -0.01620
C1950       C  0.86678750  0.28890814  0.17484487     0.03350
C1951       C  0.88752184  0.32301550  0.09053549     0.38000
C1952       C  0.89193034  0.30898974  0.22533798     0.37990
C1953       C  0.85445563  0.26014318  0.19254240     0.36410
C1954       C  0.87658939  0.38138414  0.12595370     0.36410
N1955       N  0.84338184  0.23769524  0.20649333    -0.38410
N1956       N  0.87606806  0.40648934  0.11212734    -0.38410
N1957       N  0.90444782  0.30235025  0.25021102    -0.37850
N1958       N  0.89970263  0.32798821  0.06492763    -0.37850
C1959       C  0.03966802  0.68932579  0.86036923    -0.04520
C1960       C  0.01178353  0.67363898  0.84664453    -0.01640
C1961       C  0.98895813  0.69114325  0.82724373     0.03350
C1962       C  0.98866799  0.72615593  0.82670894    -0.04520
C1963       C  0.01287250  0.74252069  0.84603255    -0.01620
C1964       C  0.03650909  0.72414366  0.86466717     0.03350
C1965       C  0.00571982  0.63888834  0.85267613     0.38000
C1966       C  0.01181599  0.77814777  0.85005479     0.37990
C1967       C  0.04560775  0.73912356  0.89574847     0.36410
C1968       C  0.96754776  0.67168659  0.80627270     0.36410
N1969       N  0.04988315  0.75254832  0.92070974    -0.38410
N1970       N  0.95234117  0.65360077  0.79029349    -0.38410
N1971       N  0.01149914  0.80645730  0.85404504    -0.37850
N1972       N  0.99977086  0.61121237  0.85631195    -0.37850
C1973       C  0.82454683  0.69575039  0.92126624    -0.04520
C1974       C  0.84349761  0.70221507  0.94969286    -0.01640
C1975       C  0.83220025  0.72560405  0.97346311     0.03350
C1976       C  0.79878126  0.73661654  0.97376386    -0.04520
C1977       C  0.77993126  0.72853070  0.94510183    -0.01620
C1978       C  0.79545262  0.71400582  0.91724062     0.03350
C1979       C  0.87742390  0.69079079  0.95110172     0.38000
C1980       C  0.74462847  0.73242195  0.94348960     0.37990
C1981       C  0.78437750  0.72201369  0.88407140     0.36410
C1982       C  0.85662508  0.74067522  0.99459191     0.36410
N1983       N  0.77609446  0.72887727  0.85747541    -0.38410
N1984       N  0.87820779  0.75224178  0.00916231    -0.38410
N1985       N  0.71648352  0.73526098  0.93996965    -0.37850
N1986       N  0.90509016  0.68401543  0.95297251    -0.37850
C1987       C  0.86720663  0.70349514  0.85534747    -0.04520
C1988       C  0.87102413  0.70545505  0.82060521    -0.01640
C1989       C  0.90098840  0.71603021  0.80602619     0.03350
C1990       C  0.92576464  0.73132942  0.82564325    -0.04520
C1991       C  0.91874161  0.73535548  0.85980442    -0.01620
C1992       C  0.88880203  0.72383433  0.87373684     0.03350
C1993       C  0.84329696  0.69844836  0.79928166     0.38000
C1994       C  0.94149121  0.75268742  0.88138441     0.37990
C1995       C  0.87629686  0.74425032  0.89997797     0.36410
C1996       C  0.90669514  0.70517363  0.77238167     0.36410
N1997       N  0.86957849  0.76310345  0.92038393    -0.38410
N1998       N  0.90869003  0.69336261  0.74629874    -0.38410
N1999       N  0.95836741  0.76631505  0.89991834    -0.37850
N2000       N  0.82184846  0.69455393  0.78087921    -0.37850
C2001       C  0.84525631  0.38478929  0.65837771    -0.04520
C2002       C  0.82730679  0.40547877  0.63628777    -0.01640
C2003       C  0.79494809  0.39743618  0.62717902     0.03350
C2004       C  0.78024581  0.36781964  0.63829078    -0.04520
C2005       C  0.79848313  0.34647483  0.65939823    -0.01620
C2006       C  0.83087295  0.35474298  0.66900188     0.03350
C2007       C  0.84249316  0.43354024  0.61960677     0.38000
C2008       C  0.78527372  0.31479319  0.66967207     0.37990
C2009       C  0.85042333  0.33049264  0.68687626     0.36410
C2010       C  0.77904175  0.41735230  0.60186619     0.36410
N2011       N  0.86595119  0.31086568  0.70076591    -0.38410
N2012       N  0.76807524  0.43337946  0.58075327    -0.38410
N2013       N  0.77581007  0.28930197  0.67865556    -0.37850
N2014       N  0.85389351  0.45540139  0.60497018    -0.37850
C2015       C  0.07489246  0.53008451  0.64955987    -0.04520
C2016       C  0.09836397  0.54271933  0.67185057    -0.01640
C2017       C  0.13171222  0.54669508  0.66198635     0.03350
C2018       C  0.14235950  0.53857326  0.62926883    -0.04520
C2019       C  0.11915398  0.52336591  0.60803255    -0.01620
C2020       C  0.08576280  0.51997945  0.61767750     0.03350
C2021       C  0.08859582  0.55170636  0.70538771     0.38000
C2022       C  0.12877086  0.51069797  0.57584034     0.37990
C2023       C  0.06242119  0.50700763  0.59376011     0.36410
C2024       C  0.15373283  0.56078340  0.68612894     0.36410
N2025       N  0.04404521  0.49657903  0.57457824    -0.38410
N2026       N  0.16816295  0.57310002  0.70745605    -0.38410
N2027       N  0.13386352  0.49946450  0.54992176    -0.37850
N2028       N  0.08155710  0.55913272  0.73222331    -0.37850
C2029       C  0.07406555  0.38839487  0.65752454    -0.04520
C2030       C  0.08256421  0.38866062  0.62345450    -0.01640
C2031       C  0.11430302  0.37916991  0.61354519     0.03350
C2032       C  0.13767509  0.36962922  0.63772809    -0.04520
C2033       C  0.13000578  0.37154863  0.67178318    -0.01620
C2034       C  0.09798157  0.38012781  0.68161426     0.03350
C2035       C  0.05869451  0.39784068  0.59829165     0.38000
C2036       C  0.15427096  0.36183597  0.69641402     0.37990
C2037       C  0.08983661  0.38002194  0.71657532     0.36410
C2038       C  0.12424531  0.38316927  0.57905137     0.36410
N2039       N  0.08296413  0.37955395  0.74442023    -0.38410
N2040       N  0.13228806  0.38810549  0.55188001    -0.38410
N2041       N  0.17343966  0.35347132  0.71589411    -0.37850
N2042       N  0.03983775  0.40524043  0.57811833    -0.37850
C2043       C  0.84429022  0.53143805  0.64223435    -0.04520
C2044       C  0.84184801  0.54836220  0.61167870    -0.01640
C2045       C  0.81061713  0.55181977  0.59655126     0.03350
C2046       C  0.78202283  0.54401796  0.61514717    -0.04520
C2047       C  0.78676330  0.51672051  0.63643859    -0.01620
C2048       C  0.81697926  0.51271801  0.65288773     0.03350
C2049       C  0.87159013  0.55827857  0.59428059     0.38000
C2050       C  0.76469920  0.48913417  0.63406844     0.37990
C2051       C  0.82081860  0.48736237  0.67812317     0.36410
C2052       C  0.80898974  0.54941008  0.56080886     0.36410
N2053       N  0.82444863  0.46703395  0.69804575    -0.38410
N2054       N  0.80844304  0.54624099  0.53226392    -0.38410
N2055       N  0.74563017  0.46802541  0.63279871    -0.37850
N2056       N  0.89587070  0.56547240  0.58090189    -0.37850
C2057       C  0.04807211  0.58556028  0.80573369    -0.04520
C2058       C  0.07011616  0.58144555  0.83241062    -0.01640
C2059       C  0.08945920  0.60859061  0.84223251     0.03350
C2060       C  0.07672365  0.64080718  0.83726314    -0.04520
C2061       C  0.06415340  0.64474196  0.80520133    -0.01620
C2062       C  0.04846875  0.61745449  0.78950134     0.03350
C2063       C  0.07855922  0.54881015  0.84444771     0.38000
C2064       C  0.07251302  0.67476939  0.78778366     0.37990
C2065       C  0.03263368  0.62317619  0.75790264     0.36410
C2066       C  0.12384793  0.60459557  0.83322115     0.36410
N2067       N  0.02005276  0.62807080  0.73263599    -0.38410
N2068       N  0.15099194  0.60121654  0.82479075    -0.38410
N2069       N  0.08181365  0.69833928  0.77442608    -0.37850
N2070       N  0.08553121  0.52270706  0.85391830    -0.37850
C2071       C  0.87830904  0.57662850  0.82552048    -0.04520
C2072       C  0.89995718  0.59317339  0.84708305    -0.01640
C2073       C  0.89275254  0.62556709  0.85787649     0.03350
C2074       C  0.86157498  0.63992641  0.85139987    -0.04520
C2075       C  0.83899548  0.62227425  0.83121721    -0.01620
C2076       C  0.84785890  0.59132415  0.81759069     0.03350
C2077       C  0.92925097  0.57632009  0.85879586     0.38000
C2078       C  0.80687886  0.63579932  0.82342101     0.37990
C2079       C  0.82532397  0.57410044  0.79577922     0.36410
C2080       C  0.91755933  0.64404714  0.87571972     0.36410
N2081       N  0.80734280  0.56030176  0.77845910    -0.38410
N2082       N  0.93757114  0.65871359  0.88975157    -0.38410
N2083       N  0.78108035  0.64570122  0.81622636    -0.37850
N2084       N  0.95176664  0.56172676  0.86860192    -0.37850
C2085       C  0.04174749  0.36168561  0.83289090    -0.04520
C2086       C  0.01668262  0.34378762  0.84934994    -0.01640
C2087       C  0.02132081  0.31043874  0.85856883     0.03350
C2088       C  0.05228532  0.29508990  0.85351999    -0.04520
C2089       C  0.07715211  0.31282992  0.83599973    -0.01620
C2090       C  0.07253783  0.34642721  0.82768236     0.03350
C2091       C  0.98608055  0.36034445  0.85691013     0.38000
C2092       C  0.10596151  0.29562109  0.82334822     0.37990
C2093       C  0.09998731  0.36569206  0.81512602     0.36410
C2094       C  0.99403714  0.29179132  0.87265521     0.36410
N2095       N  0.12235161  0.38100554  0.80593020    -0.38410
N2096       N  0.97226472  0.27680838  0.88368904    -0.38410
N2097       N  0.12851593  0.28202183  0.81208995    -0.37850
N2098       N  0.96248099  0.37511745  0.86300337    -0.37850
C2099       C  0.81589679  0.69028235  0.09077355    -0.04520
C2100       C  0.78736525  0.68226085  0.07211227    -0.01640
C2101       C  0.77878114  0.70071947  0.04338614     0.03350
C2102       C  0.79265580  0.73234139  0.03742571    -0.04520
C2103       C  0.81449580  0.74439660  0.06220393    -0.01620
C2104       C  0.82377635  0.72442177  0.08990369     0.03350
C2105       C  0.76594708  0.65572308  0.08324040     0.38000
C2106       C  0.83097531  0.77576484  0.05817970     0.37990
C2107       C  0.83036365  0.74164374  0.12052538     0.36410
C2108       C  0.75881944  0.68480878  0.01846587     0.36410
N2109       N  0.83447541  0.75645032  0.14470643    -0.38410
N2110       N  0.74392235  0.67084382  0.99851513    -0.38410
N2111       N  0.84633533  0.79968359  0.05525334    -0.37850
N2112       N  0.74853375  0.63487090  0.09225676    -0.37850
C2113       C  0.87041912  0.63305748  0.15003655    -0.04520
C2114       C  0.90162317  0.61941020  0.14240778    -0.01640
C2115       C  0.91168610  0.58945678  0.15737393     0.03350
C2116       C  0.89066918  0.57283001  0.17990058    -0.04520
C2117       C  0.85958276  0.58645041  0.18772697    -0.01620
C2118       C  0.84900865  0.61583550  0.17210014     0.03350
C2119       C  0.92079788  0.63290368  0.11504029     0.38000
C2120       C  0.83821344  0.56984244  0.21145193     0.37990
C2121       C  0.81495176  0.62641042  0.17586223     0.36410
C2122       C  0.94282857  0.57458577  0.14785394     0.36410
N2123       N  0.78772247  0.63467201  0.17854775    -0.38410
N2124       N  0.96728491  0.56228866  0.13966466    -0.38410
N2125       N  0.82123894  0.55663767  0.23048463    -0.37850
N2126       N  0.93602959  0.64277335  0.09277276    -0.37850
C2127       C  0.86798010  0.28527880  0.85260820    -0.04520
C2128       C  0.86026490  0.29715649  0.82019132    -0.01640
C2129       C  0.86375430  0.33096403  0.81181662     0.03350
C2130       C  0.88084924  0.35316489  0.83238786    -0.04520
C2131       C  0.88748716  0.34263931  0.86506953    -0.01620
C2132       C  0.88195380  0.30899585  0.87488468     0.03350
C2133       C  0.84890415  0.27591688  0.79389800     0.38000
C2134       C  0.89704606  0.36693268  0.88946360     0.37990
C2135       C  0.89165512  0.29923661  0.90797667     0.36410
C2136       C  0.84785513  0.34379126  0.78214962     0.36410
N2137       N  0.90006415  0.29312717  0.93469877    -0.38410
N2138       N  0.83470242  0.35442990  0.75904782    -0.38410
N2139       N  0.90413735  0.38630230  0.90925916    -0.37850
N2140       N  0.84011443  0.26217362  0.77039691    -0.37850
C2141       C  0.61882903  0.37575546  0.11119853    -0.04520
C2142       C  0.58812426  0.38570216  0.12467441    -0.01640
C2143       C  0.58127843  0.38080563  0.15855557     0.03350
C2144       C  0.60304938  0.36215582  0.17860494    -0.04520
C2145       C  0.63300431  0.35057186  0.16485075    -0.01620
C2146       C  0.64042915  0.35636238  0.13112038     0.03350
C2147       C  0.56327768  0.40121168  0.10397408     0.38000
C2148       C  0.65814417  0.33696594  0.18655065     0.37990
C2149       C  0.67071695  0.34255440  0.11770127     0.36410
C2150       C  0.55483620  0.39974778  0.17358391     0.36410
N2151       N  0.69468667  0.33100491  0.10711408    -0.38410
N2152       N  0.53409413  0.41609472  0.18464016    -0.38410
N2153       N  0.67838578  0.32678660  0.20397759    -0.37850
N2154       N  0.54326192  0.41334442  0.08756201    -0.37850
C2155       C  0.59816329  0.55837568  0.17484184    -0.04520
C2156       C  0.63182959  0.56134179  0.16595264    -0.01640
C2157       C  0.64257747  0.55296591  0.13374063     0.03350
C2158       C  0.61971001  0.54147781  0.10997517    -0.04520
C2159       C  0.58591652  0.53927101  0.11864180    -0.01620
C2160       C  0.57536206  0.54669251  0.15109060     0.03350
C2161       C  0.65577810  0.57225645  0.19023687     0.38000
C2162       C  0.56164150  0.52939910  0.09423124     0.37990
C2163       C  0.54166226  0.53892725  0.16078706     0.36410
C2164       C  0.67753306  0.55489596  0.12589415     0.36410
N2165       N  0.51502148  0.53169657  0.16829151    -0.38410
N2166       N  0.70544846  0.55654335  0.11991822    -0.38410
N2167       N  0.54216951  0.52155908  0.07489892    -0.37850
N2168       N  0.67510226  0.58078400  0.20942548    -0.37850
C2169       C  0.61354448  0.55864973  0.81371586    -0.04520
C2170       C  0.60986102  0.52524478  0.82302242    -0.01640
C2171       C  0.61853280  0.51464867  0.85512732     0.03350
C2172       C  0.62665460  0.53783692  0.87971121    -0.04520
C2173       C  0.63199872  0.57109431  0.87008257    -0.01620
C2174       C  0.62774555  0.58077013  0.83668358     0.03350
C2175       C  0.59765788  0.50182455  0.79913128     0.38000
C2176       C  0.64239223  0.59543034  0.89423883     0.37990
C2177       C  0.64007013  0.61258906  0.82579703     0.36410
C2178       C  0.62494142  0.48012900  0.86136936     0.36410
N2179       N  0.65115156  0.63769431  0.81764397    -0.38410
N2180       N  0.63304654  0.45327690  0.86670940    -0.38410
N2181       N  0.65083014  0.61477644  0.91350425    -0.37850
N2182       N  0.58807525  0.48403040  0.77902467    -0.37850
C2183       C  0.60298883  0.36391018  0.82104434    -0.04520
C2184       C  0.58818413  0.39115048  0.83685428    -0.01640
C2185       C  0.59141590  0.39549455  0.87112797     0.03350
C2186       C  0.61479862  0.37651845  0.88896117    -0.04520
C2187       C  0.63039262  0.34940147  0.87298426    -0.01620
C2188       C  0.62474536  0.34336332  0.83912158     0.03350
C2189       C  0.56868262  0.41453723  0.81811037     0.38000
C2190       C  0.65157606  0.32683612  0.89116143     0.37990
C2191       C  0.64356474  0.31774661  0.82233169     0.36410
C2192       C  0.57068445  0.42011306  0.88729396     0.36410
N2193       N  0.65970951  0.29807164  0.80916124    -0.38410
N2194       N  0.55417061  0.43995308  0.89972999    -0.38410
N2195       N  0.66839543  0.30863088  0.90545568    -0.37850
N2196       N  0.55214323  0.43342138  0.80450921    -0.37850
C2197       C  0.79472148  0.35135384  0.07763286    -0.04520
C2198       C  0.81659431  0.33565245  0.05549406    -0.01640
C2199       C  0.82599209  0.30242341  0.06075816     0.03350
C2200       C  0.81806990  0.28625238  0.09102725    -0.04520
C2201       C  0.79821306  0.30341305  0.11466536    -0.01620
C2202       C  0.78609642  0.33542893  0.10752891     0.03350
C2203       C  0.83039855  0.35415531  0.02775132     0.38000
C2204       C  0.79069374  0.28894379  0.14675228     0.37990
C2205       C  0.76600137  0.35292186  0.13170466     0.36410
C2206       C  0.84932399  0.28751369  0.03792382     0.36410
N2207       N  0.75024374  0.36701948  0.15110625    -0.38410
N2208       N  0.87038808  0.27764353  0.02118848    -0.38410
N2209       N  0.78390417  0.27811059  0.17251675    -0.37850
N2210       N  0.84160360  0.36889223  0.00575875    -0.37850
C2211       C  0.79265710  0.56819181  0.91283095    -0.04520
C2212       C  0.82487162  0.57549516  0.92357821    -0.01640
C2213       C  0.83773714  0.60800102  0.92012678     0.03350
C2214       C  0.81827204  0.63406613  0.90642775    -0.04520
C2215       C  0.78560925  0.62609752  0.89658388    -0.01620
C2216       C  0.77461010  0.59310584  0.89655134     0.03350
C2217       C  0.84437653  0.55008964  0.93973999     0.38000
C2218       C  0.76149879  0.65094729  0.88784197     0.37990
C2219       C  0.74377549  0.58478865  0.88021010     0.36410
C2220       C  0.87037673  0.61401970  0.93294934     0.36410
N2221       N  0.71937687  0.57815189  0.86704553    -0.38410
N2222       N  0.89657351  0.61597951  0.94399843    -0.38410
N2223       N  0.73969751  0.66813547  0.88102511    -0.37850
N2224       N  0.86008861  0.52997509  0.95267410    -0.37850
C2225       C  0.79690576  0.57298560  0.06585205    -0.04520
C2226       C  0.80714587  0.59779209  0.04291069    -0.01640
C2227       C  0.82682610  0.62447474  0.05423022     0.03350
C2228       C  0.83390838  0.62721940  0.08837456    -0.04520
C2229       C  0.83432556  0.59607874  0.10462952    -0.01620
C2230       C  0.80799282  0.57498607  0.09866435     0.03350
C2231       C  0.79466407  0.59805777  0.00943571     0.38000
C2232       C  0.86413166  0.57704612  0.09871008     0.37990
C2233       C  0.79901649  0.55053454  0.12336646     0.36410
C2234       C  0.84169745  0.64750422  0.03158189     0.36410
N2235       N  0.79175371  0.53110313  0.14321979    -0.38410
N2236       N  0.85519309  0.66594607  0.01446330    -0.38410
N2237       N  0.88697981  0.56096470  0.09247436    -0.37850
N2238       N  0.78355162  0.59914809  0.98310797    -0.37850
C2239       C  0.78918975  0.34463433  0.91729380    -0.04520
C2240       C  0.79892902  0.32031419  0.94056318    -0.01640
C2241       C  0.81515230  0.29148554  0.92989570     0.03350
C2242       C  0.81408986  0.28223422  0.89610956    -0.04520
C2243       C  0.79821169  0.30385892  0.87342410    -0.01620
C2244       C  0.78888571  0.33609961  0.88337776     0.03350
C2245       C  0.78510668  0.32078810  0.97377489     0.38000
C2246       C  0.78729922  0.29152335  0.84163191     0.37990
C2247       C  0.77596400  0.35927773  0.85922803     0.36410
C2248       C  0.82893951  0.26879937  0.95394921     0.36410
N2249       N  0.76577535  0.37782598  0.83990910    -0.38410
N2250       N  0.83903041  0.24844805  0.97134623    -0.38410
N2251       N  0.77742016  0.28171967  0.81663541    -0.37850
N2252       N  0.77173138  0.32002588  0.99920674    -0.37850
C2253       C  0.32086397  0.37191190  0.81993342    -0.04520
C2254       C  0.33952990  0.39665210  0.83632345    -0.01640
C2255       C  0.33261340  0.40533427  0.86967660     0.03350
C2256       C  0.30768969  0.38857040  0.88781327    -0.04520
C2257       C  0.29111564  0.36218085  0.87223882    -0.01620
C2258       C  0.29507227  0.35640797  0.83802086     0.03350
C2259       C  0.36712099  0.41264214  0.81994147     0.38000
C2260       C  0.27233341  0.33843636  0.89180715     0.37990
C2261       C  0.27271207  0.33321186  0.82287182     0.36410
C2262       C  0.35266149  0.43041363  0.88550398     0.36410
N2263       N  0.25335828  0.31434258  0.81381114    -0.38410
N2264       N  0.36888780  0.45034419  0.89788666    -0.38410
N2265       N  0.25791668  0.31911635  0.90737102    -0.37850
N2266       N  0.38945460  0.42660710  0.80869645    -0.37850
C2267       C  0.29125165  0.54410000  0.12094207    -0.04520
C2268       C  0.29204788  0.51978753  0.14570058    -0.01640
C2269       C  0.30576244  0.52716671  0.17660039     0.03350
C2270       C  0.31256276  0.56038036  0.18547031    -0.04520
C2271       C  0.30227872  0.58562784  0.16330607    -0.01620
C2272       C  0.29428297  0.57757618  0.13019167     0.03350
C2273       C  0.27506527  0.48870497  0.14065076     0.38000
C2274       C  0.29821295  0.61923899  0.17480514     0.37990
C2275       C  0.28933700  0.60359628  0.10592354     0.36410
C2276       C  0.31373737  0.50035003  0.19866646     0.36410
N2277       N  0.28542905  0.62441806  0.08658113    -0.38410
N2278       N  0.31914499  0.47985185  0.21783747    -0.38410
N2279       N  0.29363723  0.64603581  0.18367287    -0.37850
N2280       N  0.26030436  0.46458103  0.13678221    -0.37850
C2281       C  0.29957256  0.38989977  0.11702740    -0.04520
C2282       C  0.29076598  0.35849437  0.12974656    -0.01640
C2283       C  0.29739566  0.35040450  0.16300923     0.03350
C2284       C  0.31540574  0.37261720  0.18302603    -0.04520
C2285       C  0.32408678  0.40405170  0.17048279    -0.01620
C2286       C  0.31716591  0.41224751  0.13738189     0.03350
C2287       C  0.27928671  0.33270690  0.10764763     0.38000
C2288       C  0.34792804  0.42418003  0.18813734     0.37990
C2289       C  0.33274092  0.44161627  0.12352858     0.36410
C2290       C  0.28832291  0.31797548  0.17553516     0.36410
N2291       N  0.34596678  0.46457731  0.11264895    -0.38410
N2292       N  0.28070440  0.29209935  0.18515568    -0.38410
N2293       N  0.36900264  0.43930741  0.20001100    -0.37850
N2294       N  0.27078263  0.31188950  0.09001994    -0.37850
C2295       C  0.31942363  0.55184834  0.82074032    -0.04520
C2296       C  0.30690288  0.57814039  0.84037861    -0.01640
C2297       C  0.29846155  0.57243133  0.87381228     0.03350
C2298       C  0.29635920  0.53974435  0.88564573    -0.04520
C2299       C  0.30057640  0.51335869  0.86335403    -0.01620
C2300       C  0.31475331  0.51904559  0.83210381     0.03350
C2301       C  0.30073087  0.61028618  0.82577726     0.38000
C2302       C  0.28636131  0.48139737  0.87086382     0.37990
C2303       C  0.32416242  0.49114146  0.81171857     0.36410
C2304       C  0.29269334  0.60010082  0.89588331     0.36410
N2305       N  0.33114209  0.46936623  0.79454104    -0.38410
N2306       N  0.28822152  0.62224379  0.91347226    -0.38410
N2307       N  0.27327376  0.45655433  0.87609434    -0.37850
N2308       N  0.29440924  0.63574818  0.81430243    -0.37850
C2309       C  0.12934125  0.35704130  0.91729911    -0.04520
C2310       C  0.09581003  0.35240033  0.92600765    -0.01640
C2311       C  0.07979314  0.32224263  0.91862552     0.03350
C2312       C  0.09765705  0.29552661  0.90408370    -0.04520
C2313       C  0.13126332  0.30046536  0.89585025    -0.01620
C2314       C  0.14571437  0.33184168  0.89948997     0.03350
C2315       C  0.07774261  0.37802801  0.94349111     0.38000
C2316       C  0.15131412  0.27330528  0.88363791     0.37990
C2317       C  0.17654656  0.33907852  0.88265816     0.36410
C2318       C  0.04568596  0.31812207  0.92891041     0.36410
N2319       N  0.20039307  0.34547808  0.86814196    -0.38410
N2320       N  0.01879439  0.31546053  0.93835831    -0.38410
N2321       N  0.16760573  0.25176386  0.87413540    -0.37850
N2322       N  0.06309479  0.39833842  0.95740838    -0.37850
C2323       C  0.10962646  0.63845708  0.10350270    -0.04520
C2324       C  0.10240189  0.62652743  0.07157059    -0.01640
C2325       C  0.11112268  0.59414166  0.06214159     0.03350
C2326       C  0.12886544  0.57360526  0.08413098    -0.04520
C2327       C  0.13670903  0.58558313  0.11603791    -0.01620
C2328       C  0.12674615  0.61763056  0.12593200     0.03350
C2329       C  0.08330998  0.64749781  0.04987424     0.38000
C2330       C  0.15611019  0.56520857  0.13829988     0.37990
C2331       C  0.13530680  0.62949443  0.15866005     0.36410
C2332       C  0.10289007  0.58245109  0.02929197     0.36410
N2333       N  0.14289640  0.63875488  0.18466757    -0.38410
N2334       N  0.09625319  0.57318175  0.00305024    -0.38410
N2335       N  0.17170165  0.54897997  0.15598239    -0.37850
N2336       N  0.06710446  0.66612936  0.03559477    -0.37850
C2337       C  0.13028520  0.34738624  0.07705685    -0.04520
C2338       C  0.14884254  0.32400728  0.09513751    -0.01640
C2339       C  0.13734619  0.29144351  0.10005480     0.03350
C2340       C  0.10473226  0.28231263  0.09114958    -0.04520
C2341       C  0.08517248  0.30675102  0.07479784    -0.01620
C2342       C  0.09799771  0.33878011  0.06758483     0.03350
C2343       C  0.18000967  0.33382829  0.10980910     0.38000
C2344       C  0.05201103  0.29959966  0.06407486     0.37990
C2345       C  0.07786937  0.36274457  0.05010770     0.36410
C2346       C  0.16042941  0.26816649  0.11427353     0.36410
N2347       N  0.06156664  0.38185703  0.03642093    -0.38410
N2348       N  0.18116425  0.25216942  0.12573191    -0.38410
N2349       N  0.02536646  0.29636218  0.05448274    -0.37850
N2350       N  0.20459501  0.34173507  0.12182689    -0.37850
C2351       C  0.10595432  0.63571393  0.90339040    -0.04520
C2352       C  0.08649854  0.60846594  0.91429393    -0.01640
C2353       C  0.10129356  0.57771634  0.92093108     0.03350
C2354       C  0.13565161  0.57395978  0.91715642    -0.04520
C2355       C  0.15467005  0.60068225  0.90445744    -0.01620
C2356       C  0.14013637  0.63170388  0.89885008     0.03350
C2357       C  0.05097844  0.61109019  0.91744485     0.38000
C2358       C  0.18882818  0.59568930  0.89450003     0.37990
C2359       C  0.15944509  0.65793381  0.88360695     0.36410
C2360       C  0.08077534  0.55012240  0.93131868     0.36410
N2361       N  0.17486270  0.67827022  0.87057056    -0.38410
N2362       N  0.06415322  0.52828954  0.93945847    -0.38410
N2363       N  0.21585752  0.59164607  0.88607379    -0.37850
N2364       N  0.02270745  0.61190895  0.92149121    -0.37850
C2365       C  0.74352506  0.98671173  0.14708827    -0.04520
C2366       C  0.75460292  0.01997495  0.14664240    -0.01640
C2367       C  0.73114334  0.04638348  0.14322272     0.03350
C2368       C  0.69731322  0.03930401  0.13624950    -0.04520
C2369       C  0.68877354  0.00539420  0.13865171    -0.01620
C2370       C  0.71279822  0.98215368  0.13178257     0.03350
C2371       C  0.78948747  0.02729084  0.14566930     0.38000
C2372       C  0.66376471  0.99415191  0.16176287     0.37990
C2373       C  0.71365667  0.97386885  0.09698549     0.36410
C2374       C  0.73929161  0.07626508  0.16056787     0.36410
N2375       N  0.71393685  0.96791167  0.06889254    -0.38410
N2376       N  0.74700586  0.09790967  0.17752897    -0.38410
N2377       N  0.64405913  0.98481573  0.18046224    -0.37850
N2378       N  0.81730883  0.03355217  0.14422241    -0.37850
C2379       C  0.74024107  0.92455808  0.16087921    -0.04520
C2380       C  0.74137658  0.91021839  0.12870869    -0.01640
C2381       C  0.71705242  0.88683826  0.11886340     0.03350
C2382       C  0.69701661  0.87026843  0.14262267    -0.04520
C2383       C  0.70034266  0.88124793  0.17612419    -0.01620
C2384       C  0.71770762  0.91058760  0.18374321     0.03350
C2385       C  0.76559706  0.92167499  0.10469404     0.38000
C2386       C  0.68589797  0.86356775  0.20383690     0.37990
C2387       C  0.70806483  0.92854182  0.21330415     0.36410
C2388       C  0.70937466  0.88381109  0.08422376     0.36410
N2389       N  0.69824426  0.94237469  0.23642971    -0.38410
N2390       N  0.70152476  0.88238248  0.05679967    -0.38410
N2391       N  0.67609646  0.85123299  0.22789227    -0.37850
N2392       N  0.78491729  0.93082780  0.08551414    -0.37850
C2393       C  0.78668047  0.93085292  0.21824814    -0.04520
C2394       C  0.78256975  0.93418306  0.25294830    -0.01640
C2395       C  0.79782935  0.91215299  0.27535963     0.03350
C2396       C  0.81225696  0.88138997  0.26458922    -0.04520
C2397       C  0.80986834  0.87512655  0.22987683    -0.01620
C2398       C  0.80144826  0.90091155  0.20706436     0.03350
C2399       C  0.76180953  0.96003944  0.26702332     0.38000
C2400       C  0.81204865  0.84182206  0.21716129     0.37990
C2401       C  0.81053798  0.89669854  0.17258830     0.36410
C2402       C  0.79611285  0.92247190  0.30980532     0.36410
N2403       N  0.81927737  0.89238921  0.14555438    -0.38410
N2404       N  0.79227747  0.93206106  0.33657845    -0.38410
N2405       N  0.81273186  0.81546153  0.20610062    -0.37850
N2406       N  0.74557368  0.97915666  0.28091073    -0.37850
C2407       C  0.79440417  0.99265874  0.20858698    -0.04520
C2408       C  0.82898906  0.99335724  0.21290455    -0.01640
C2409       C  0.84417439  0.01452231  0.23665096     0.03350
C2410       C  0.82556053  0.03856472  0.25476707    -0.04520
C2411       C  0.79166655  0.04159978  0.24551577    -0.01620
C2412       C  0.77611142  0.01840432  0.22390323     0.03350
C2413       C  0.84920078  0.97088713  0.19337603     0.38000
C2414       C  0.77163339  0.06837716  0.25816418     0.37990
C2415       C  0.74047239  0.01918160  0.22065197     0.36410
C2416       C  0.87817581  0.00733787  0.24405912     0.36410
N2417       N  0.71200002  0.02008527  0.21894361    -0.38410
N2418       N  0.90464607  0.99740994  0.24791834    -0.38410
N2419       N  0.75385524  0.08925249  0.26634187    -0.37850
N2420       N  0.86561076  0.95339771  0.17768341    -0.37850
C2421       C  0.92876495  0.73241118  0.17937196    -0.04520
C2422       C  0.92135434  0.73674393  0.14505812    -0.01640
C2423       C  0.89881481  0.71485204  0.12877685     0.03350
C2424       C  0.87683899  0.69454059  0.14762592    -0.04520
C2425       C  0.88052860  0.69635488  0.18263636    -0.01620
C2426       C  0.91001009  0.70824150  0.19630811     0.03350
C2427       C  0.94020452  0.76037371  0.12571601     0.38000
C2428       C  0.85546804  0.68456640  0.20537600     0.37990
C2429       C  0.92508428  0.68797198  0.22176177     0.36410
C2430       C  0.90000719  0.71188881  0.09303103     0.36410
N2431       N  0.93733358  0.67050677  0.24091030    -0.38410
N2432       N  0.90142671  0.70917531  0.06448268    -0.38410
N2433       N  0.83597137  0.67640002  0.22481915    -0.37850
N2434       N  0.95529843  0.77922001  0.11024323    -0.37850
C2435       C  0.99211905  0.72717325  0.18094550    -0.04520
C2436       C  0.02463776  0.72875389  0.19347444    -0.01640
C2437       C  0.05194966  0.71796886  0.17343795     0.03350
C2438       C  0.04648269  0.69975193  0.14389490    -0.04520
C2439       C  0.01376681  0.69798035  0.13289056    -0.01620
C2440       C  0.98816776  0.70389842  0.15514620     0.03350
C2441       C  0.02827228  0.72990984  0.22901513     0.38000
C2442       C  0.00560980  0.68688679  0.09989036     0.37990
C2443       C  0.97212974  0.67349016  0.16434323     0.36410
C2444       C  0.08536865  0.72606338  0.18269145     0.36410
N2445       N  0.96227880  0.64802439  0.17279420    -0.38410
N2446       N  0.11217119  0.73270757  0.18977771    -0.38410
N2447       N  0.99840999  0.68009734  0.07301565    -0.37850
N2448       N  0.02937175  0.72916904  0.25768581    -0.37850
C2449       C  0.98992732  0.79212842  0.23142653    -0.04520
C2450       C  0.98702557  0.80409646  0.26445589    -0.01640
C2451       C  0.00868146  0.82812167  0.27656762     0.03350
C2452       C  0.04144448  0.82979670  0.26491898    -0.04520
C2453       C  0.04676457  0.81609441  0.23270776    -0.01620
C2454       C  0.01937304  0.80249377  0.21439184     0.03350
C2455       C  0.96643773  0.78849369  0.28918486     0.38000
C2456       C  0.07948383  0.81577313  0.21830984     0.37990
C2457       C  0.02140791  0.80058963  0.17863119     0.36410
C2458       C  0.99705380  0.85063071  0.30183238     0.36410
N2459       N  0.02312352  0.79953491  0.14997589    -0.38410
N2460       N  0.98733104  0.86905736  0.32148494    -0.38410
N2461       N  0.10564753  0.81526665  0.20665971    -0.37850
N2462       N  0.95260688  0.77676233  0.31145143    -0.37850
C2463       C  0.92624534  0.78866100  0.22585432    -0.04520
C2464       C  0.91880114  0.82282618  0.22065181    -0.01640
C2465       C  0.89139600  0.83825133  0.23737671     0.03350
C2466       C  0.86847025  0.81886020  0.25582423    -0.04520
C2467       C  0.87191258  0.78435459  0.25256868    -0.01620
C2468       C  0.90266805  0.77049122  0.24455452     0.03350
C2469       C  0.94065318  0.84267683  0.20024848     0.38000
C2470       C  0.84460358  0.76239520  0.25947457     0.37990
C2471       C  0.91193653  0.74254414  0.26477815     0.36410
C2472       C  0.88790220  0.87382912  0.23655148     0.36410
N2473       N  0.91781828  0.72180674  0.28371844    -0.38410
N2474       N  0.88556495  0.90233067  0.23600500    -0.38410
N2475       N  0.82330973  0.74375258  0.26330504    -0.37850
N2476       N  0.95807899  0.85858128  0.18392627    -0.37850
C2477       C  0.13786546  0.92150488  0.78161498    -0.04520
C2478       C  0.10296681  0.92037231  0.78332203    -0.01640
C2479       C  0.08454055  0.89907242  0.76232443     0.03350
C2480       C  0.10028368  0.87332952  0.74399968    -0.04520
C2481       C  0.13428809  0.86890292  0.75039937    -0.01620
C2482       C  0.15336974  0.89427643  0.76526529     0.03350
C2483       C  0.08531160  0.94290558  0.80512249     0.38000
C2484       C  0.15071895  0.83855749  0.74084323     0.37990
C2485       C  0.18823364  0.89315247  0.75789075     0.36410
C2486       C  0.05095358  0.90910533  0.75664122     0.36410
N2487       N  0.21503019  0.88958435  0.74847152    -0.38410
N2488       N  0.02576415  0.92233547  0.75435896    -0.38410
N2489       N  0.16565954  0.81484597  0.73513967    -0.37850
N2490       N  0.07008538  0.95993233  0.82244761    -0.37850
C2491       C  0.11536746  0.03799082  0.73092782    -0.04520
C2492       C  0.11368119  0.03854766  0.76660870    -0.01640
C2493       C  0.12646420  0.01186953  0.78652996     0.03350
C2494       C  0.14239075  0.98419976  0.77197599    -0.04520
C2495       C  0.14641243  0.98469044  0.73724766    -0.01620
C2496       C  0.13660883  0.01226826  0.71801599     0.03350
C2497       C  0.10442303  0.06801517  0.78444329     0.38000
C2498       C  0.16376771  0.95802498  0.72028495     0.37990
C2499       C  0.15485100  0.01522242  0.68702655     0.36410
C2500       C  0.12252128  0.01286137  0.82232212     0.36410
N2501       N  0.17158195  0.01557720  0.66363488    -0.38410
N2502       N  0.11892550  0.01380166  0.85082820    -0.38410
N2503       N  0.17729592  0.93858800  0.70415176    -0.37850
N2504       N  0.09841585  0.09031610  0.80137007    -0.37850
C2505       C  0.23103042  0.04437999  0.85774433    -0.04520
C2506       C  0.21829485  0.01889838  0.87824515    -0.01640
C2507       C  0.19785445  0.99336997  0.86478217     0.03350
C2508       C  0.19493637  0.98853277  0.82965373    -0.04520
C2509       C  0.20773386  0.01465032  0.80967356    -0.01620
C2510       C  0.22052992  0.04381434  0.82432592     0.03350
C2511       C  0.22354150  0.02040334  0.91375755     0.38000
C2512       C  0.21105866  0.01178983  0.77410396     0.37990
C2513       C  0.21317339  0.07482488  0.80820574     0.36410
C2514       C  0.17941539  0.97310538  0.88797220     0.36410
N2515       N  0.20490696  0.09927500  0.79578001    -0.38410
N2516       N  0.16506688  0.95845866  0.90809077    -0.38410
N2517       N  0.21543399  0.01062710  0.74571676    -0.37850
N2518       N  0.22682552  0.02137635  0.94225628    -0.37850
C2519       C  0.19667931  0.92439284  0.82759120    -0.04520
C2520       C  0.22807242  0.91533460  0.81545843    -0.01640
C2521       C  0.24310380  0.88548934  0.82611925     0.03350
C2522       C  0.23464597  0.87173317  0.85774035    -0.04520
C2523       C  0.20245225  0.88073142  0.86984435    -0.01620
C2524       C  0.18237107  0.90363659  0.85190023     0.03350
C2525       C  0.24507601  0.93630585  0.79162330     0.38000
C2526       C  0.18943698  0.87016474  0.90141801     0.37990
C2527       C  0.14761858  0.90710776  0.85998767     0.36410
C2528       C  0.27043878  0.87245456  0.80674358     0.36410
N2529       N  0.11993842  0.90940479  0.86679483    -0.38410
N2530       N  0.29232440  0.86350126  0.79052187    -0.38410
N2531       N  0.17625307  0.86417617  0.92625640    -0.37850
N2532       N  0.25895375  0.95229698  0.77223422    -0.37850
C2533       C  0.05304323  0.09482753  0.74325247    -0.04520
C2534       C  0.05327816  0.12852545  0.75190233    -0.01640
C2535       C  0.02450045  0.14438977  0.76340174     0.03350
C2536       C  0.99800114  0.12579383  0.77715719    -0.04520
C2537       C  0.00203195  0.09056932  0.77672436    -0.01620
C2538       C  0.02812744  0.07537655  0.75810068     0.03350
C2539       C  0.08423114  0.14590968  0.75458468     0.38000
C2540       C  0.97883857  0.06953754  0.79418070     0.37990
C2541       C  0.02985645  0.03978062  0.75484674     0.36410
C2542       C  0.02093698  0.17824457  0.75278340     0.36410
N2543       N  0.03135538  0.01133234  0.75236068    -0.38410
N2544       N  0.01994997  0.20439453  0.74114652    -0.38410
N2545       N  0.96088706  0.05202790  0.80806589    -0.37850
N2546       N  0.10869227  0.15979205  0.75930436    -0.37850
C2547       C  0.93484862  0.12617011  0.76834492    -0.04520
C2548       C  0.90800636  0.11010187  0.78428936    -0.01640
C2549       C  0.88208638  0.09420385  0.76571767     0.03350
C2550       C  0.88193618  0.09373762  0.73003507    -0.04520
C2551       C  0.91213155  0.10467884  0.71526594    -0.01620
C2552       C  0.93624452  0.12283790  0.73317982     0.03350
C2553       C  0.90846528  0.10729288  0.82020905     0.38000
C2554       C  0.91917730  0.09734677  0.68070650     0.37990
C2555       C  0.96171069  0.13943690  0.71397295     0.36410
C2556       C  0.86009227  0.07388077  0.78483076     0.36410
N2557       N  0.98096335  0.15223277  0.69697131    -0.38410
N2558       N  0.84553409  0.05757660  0.80337631    -0.38410
N2559       N  0.92574644  0.09258499  0.65315885    -0.37850
N2560       N  0.90901732  0.10430306  0.84878101    -0.37850
C2561       C  0.92971676  0.18063407  0.82665803    -0.04520
C2562       C  0.90345660  0.19281305  0.80693325    -0.01640
C2563       C  0.87578895  0.20854475  0.82194500     0.03350
C2564       C  0.87787036  0.22181985  0.85421071    -0.04520
C2565       C  0.90336247  0.20951381  0.87449111    -0.01620
C2566       C  0.92673189  0.18646419  0.86160187     0.03350
C2567       C  0.90689216  0.19444345  0.77135377     0.38000
C2568       C  0.90329392  0.21706882  0.90962203     0.37990
C2569       C  0.94508121  0.16691679  0.88526681     0.36410
C2570       C  0.84331975  0.20355427  0.80828168     0.36410
N2571       N  0.95775505  0.15151033  0.90582509    -0.38410
N2572       N  0.81682418  0.19891263  0.79881477    -0.38410
N2573       N  0.90357327  0.22169048  0.93795121    -0.37850
N2574       N  0.91117114  0.19717362  0.74305670    -0.37850
C2575       C  0.03970606  0.23225279  0.85288458    -0.04520
C2576       C  0.02995463  0.20217153  0.86882646    -0.01640
C2577       C  0.01213078  0.17739180  0.85084867     0.03350
C2578       C  0.99218005  0.18659097  0.82350137    -0.04520
C2579       C  0.99738550  0.21882838  0.81107174    -0.01620
C2580       C  0.02552939  0.23688121  0.82063058     0.03350
C2581       C  0.03161827  0.19872971  0.90436029     0.38000
C2582       C  0.97464332  0.23421001  0.78804291     0.37990
C2583       C  0.03937858  0.25902685  0.79584265     0.36410
C2584       C  0.01377352  0.14315206  0.86103139     0.36410
N2585       N  0.04953275  0.27598447  0.77497450    -0.38410
N2586       N  0.01544120  0.11565364  0.86881763    -0.38410
N2587       N  0.95756733  0.24815442  0.76982094    -0.37850
N2588       N  0.03130819  0.19611712  0.93295594    -0.37850
C2589       C  0.74753703  0.11872683  0.03026215    -0.04520
C2590       C  0.71961669  0.09853399  0.02545074    -0.01640
C2591       C  0.69342754  0.10275107  0.04729650     0.03350
C2592       C  0.70017319  0.09953642  0.08132202    -0.04520
C2593       C  0.73064288  0.11534368  0.08992813    -0.01620
C2594       C  0.75532750  0.12236038  0.06466811     0.03350
C2595       C  0.72566767  0.06463969  0.01630525     0.38000
C2596       C  0.73124999  0.13622473  0.11882163     0.37990
C2597       C  0.78913076  0.12646083  0.07473307     0.36410
C2598       C  0.67122205  0.12937166  0.03857119     0.36410
N2599       N  0.81636614  0.12836609  0.08292634    -0.38410
N2600       N  0.65272115  0.15053300  0.03323723    -0.38410
N2601       N  0.73180426  0.15476837  0.14063655    -0.37850
N2602       N  0.73017570  0.03719652  0.00964353    -0.37850
C2603       C  0.74355267  0.12737673  0.96745459    -0.04520
C2604       C  0.75073471  0.09714533  0.95079690    -0.01640
C2605       C  0.72699628  0.08246742  0.92897551     0.03350
C2606       C  0.69713487  0.09963561  0.92157264    -0.04520
C2607       C  0.68746792  0.12082708  0.94724202    -0.01620
C2608       C  0.71111095  0.13966457  0.96381688     0.03350
C2609       C  0.77917812  0.07790652  0.96094156     0.38000
C2610       C  0.65432590  0.11845364  0.96079880     0.37990
C2611       C  0.70032439  0.17040724  0.97816947     0.36410
C2612       C  0.72724329  0.04675720  0.92769297     0.36410
N2613       N  0.68927092  0.19498876  0.98768185    -0.38410
N2614       N  0.72796527  0.01815784  0.92845010    -0.38410
N2615       N  0.62805456  0.11637408  0.97202185    -0.37850
N2616       N  0.80085709  0.06140546  0.96957313    -0.37850
C2617       C  0.79829544  0.18198912  0.02765323    -0.04520
C2618       C  0.83298855  0.18601565  0.03211838    -0.01640
C2619       C  0.84600338  0.20765629  0.05675914     0.03350
C2620       C  0.82488308  0.22450781  0.07916353    -0.04520
C2621       C  0.79068712  0.21715732  0.07734996    -0.01620
C2622       C  0.77748340  0.19784188  0.05123449     0.03350
C2623       C  0.85627901  0.16678340  0.01291716     0.38000
C2624       C  0.76819942  0.22843451  0.10307465     0.37990
C2625       C  0.74199168  0.19432196  0.05006910     0.36410
C2626       C  0.88131418  0.21316621  0.05784409     0.36410
N2627       N  0.71360184  0.19244909  0.05205084    -0.38410
N2628       N  0.90957393  0.21721388  0.05802506    -0.38410
N2629       N  0.74859078  0.23575314  0.12272171    -0.37850
N2630       N  0.87683567  0.15198686  0.99953901    -0.37850
C2631       C  0.81068384  0.21831233  0.90376871    -0.04520
C2632       C  0.78060367  0.22412544  0.92158502    -0.01640
C2633       C  0.77485161  0.20960497  0.95324549     0.03350
C2634       C  0.79195525  0.18076768  0.96331335    -0.04520
C2635       C  0.81535208  0.16822245  0.93993050    -0.01620
C2636       C  0.82456808  0.18658703  0.91057974     0.03350
C2637       C  0.75536842  0.24568138  0.90803848     0.38000
C2638       C  0.83099781  0.13661729  0.94564000     0.37990
C2639       C  0.84032197  0.16808992  0.88437208     0.36410
C2640       C  0.75462959  0.22792962  0.97646170     0.36410
N2641       N  0.85166398  0.15094233  0.86438788    -0.38410
N2642       N  0.73937143  0.24453268  0.99417748    -0.38410
N2643       N  0.84510701  0.11195575  0.94885524    -0.37850
N2644       N  0.73480640  0.26253921  0.89754072    -0.37850
C2645       C  0.11197274  0.70140869  0.09381533    -0.04520
C2646       C  0.14597438  0.69775213  0.08528901    -0.01640
C2647       C  0.15857327  0.70856278  0.05425912     0.03350
C2648       C  0.14089359  0.73130768  0.03443103    -0.04520
C2649       C  0.10953476  0.74125873  0.04624533    -0.01620
C2650       C  0.09479568  0.72626371  0.07508491     0.03350
C2651       C  0.16880145  0.68265380  0.10837859     0.38000
C2652       C  0.09168379  0.76613274  0.02749628     0.37990
C2653       C  0.06328059  0.73930562  0.08529124     0.36410
C2654       C  0.18737931  0.69187703  0.04092690     0.36410
N2655       N  0.03878223  0.75273390  0.09146334    -0.38410
N2656       N  0.20939791  0.67703392  0.03016504    -0.38410
N2657       N  0.07752292  0.78591041  0.01241147    -0.37850
N2658       N  0.18816349  0.67155633  0.12624563    -0.37850
C2659       C  0.09720426  0.69502807  0.91866985    -0.04520
C2660       C  0.09452810  0.68655027  0.95224923    -0.01640
C2661       C  0.11911982  0.69646843  0.97443487     0.03350
C2662       C  0.13515981  0.72761681  0.97042433    -0.04520
C2663       C  0.12837172  0.74339497  0.93929157    -0.01620
C2664       C  0.11579510  0.72421956  0.91204594     0.03350
C2665       C  0.06646520  0.66802059  0.96399180     0.38000
C2666       C  0.13112377  0.77873746  0.93564492     0.37990
C2667       C  0.12004901  0.73562552  0.87824131     0.36410
C2668       C  0.13362991  0.66983041  0.99312931     0.36410
N2669       N  0.12338067  0.74471999  0.85116693    -0.38410
N2670       N  0.14489546  0.64671698  0.00570901    -0.38410
N2671       N  0.13233281  0.80711256  0.93249115    -0.37850
N2672       N  0.04302040  0.65474655  0.97363626    -0.37850
C2673       C  0.18834372  0.78352833  0.03314322    -0.04520
C2674       C  0.18386396  0.81821859  0.03782520    -0.01640
C2675       C  0.20440593  0.83524548  0.06112135     0.03350
C2676       C  0.22002087  0.81711602  0.08713882    -0.04520
C2677       C  0.21316391  0.78326335  0.08767663    -0.01620
C2678       C  0.20753122  0.76730539  0.05751006     0.03350
C2679       C  0.16258910  0.83659850  0.01570172     0.38000
C2680       C  0.19636549  0.77041142  0.11656055     0.37990
C2681       C  0.23387709  0.74562224  0.04714164     0.36410
C2682       C  0.20906455  0.87046539  0.05767115     0.36410
N2683       N  0.25621387  0.72957792  0.03917636    -0.38410
N2684       N  0.21170651  0.89869099  0.05395812    -0.38410
N2685       N  0.18244005  0.76039556  0.13964007    -0.37850
N2686       N  0.14542070  0.85136916  0.99823843    -0.37850
C2687       C  0.20027912  0.78013740  0.96923551    -0.04520
C2688       C  0.20290017  0.76455796  0.93763542    -0.01640
C2689       C  0.21766268  0.78135937  0.90976799     0.03350
C2690       C  0.23313048  0.81270713  0.91356557    -0.04520
C2691       C  0.23275159  0.82660886  0.94561596    -0.01620
C2692       C  0.22174102  0.80790454  0.97291123     0.03350
C2693       C  0.20008804  0.72895694  0.93632797     0.38000
C2694       C  0.24874220  0.85817069  0.95189847     0.37990
C2695       C  0.24512246  0.80807566  0.99981673     0.36410
C2696       C  0.22015035  0.76484669  0.87801608     0.36410
N2697       N  0.26572013  0.80773614  0.01947533    -0.38410
N2698       N  0.22214195  0.75167373  0.85262162    -0.38410
N2699       N  0.26088358  0.88346939  0.95715046    -0.37850
N2700       N  0.19908449  0.70038885  0.93616035    -0.37850
C2701       C  0.25152636  0.49355588  0.66003144    -0.04520
C2702       C  0.24729276  0.49031774  0.62557793    -0.01640
C2703       C  0.21915287  0.50504289  0.61130113     0.03350
C2704       C  0.20681799  0.53525850  0.62486124    -0.04520
C2705       C  0.22395931  0.54693675  0.65274783    -0.01620
C2706       C  0.23842651  0.52330116  0.67398788     0.03350
C2707       C  0.26830551  0.46818856  0.60669819     0.38000
C2708       C  0.22359048  0.58145691  0.66195190     0.37990
C2709       C  0.22674170  0.52538969  0.70758058     0.36410
C2710       C  0.20234008  0.48538066  0.58701293     0.36410
N2711       N  0.21381482  0.52818768  0.73310273    -0.38410
N2712       N  0.19161723  0.46702532  0.56792547    -0.38410
N2713       N  0.22421836  0.60897047  0.66964709    -0.37850
N2714       N  0.28604349  0.45135514  0.59176423    -0.37850
C2715       C  0.23961317  0.43197601  0.66805349    -0.04520
C2716       C  0.25204581  0.40070599  0.65758702    -0.01640
C2717       C  0.22955511  0.37546359  0.64779376     0.03350
C2718       C  0.19743769  0.38433938  0.63657020    -0.04520
C2719       C  0.18784625  0.41791738  0.64239065    -0.01620
C2720       C  0.20562622  0.43728705  0.66434331     0.03350
C2721       C  0.28704768  0.39483805  0.65401825     0.38000
C2722       C  0.15930742  0.43381262  0.62778227     0.37990
C2723       C  0.18772025  0.46168335  0.68374724     0.36410
C2724       C  0.23979283  0.34120850  0.64903733     0.36410
N2725       N  0.17130130  0.47948443  0.69905280    -0.38410
N2726       N  0.24805919  0.31384652  0.65025001    -0.38410
N2727       N  0.13673706  0.44797100  0.61750346    -0.37850
N2728       N  0.31490128  0.38981920  0.65005640    -0.37850
C2729       C  0.29648382  0.42882969  0.71923190    -0.04520
C2730       C  0.33112021  0.42267827  0.72000859    -0.01640
C2731       C  0.34436286  0.39796922  0.74094502     0.03350
C2732       C  0.32322598  0.37547742  0.75724868    -0.04520
C2733       C  0.28935508  0.37691936  0.74956494    -0.01620
C2734       C  0.27568133  0.40534927  0.73492934     0.03350
C2735       C  0.35375517  0.43939352  0.69772959     0.38000
C2736       C  0.27022642  0.34684707  0.74892136     0.37990
C2737       C  0.24033898  0.40984567  0.73744809     0.36410
C2738       C  0.37986437  0.39463112  0.74322150     0.36410
N2739       N  0.21207002  0.41277541  0.74035081    -0.38410
N2740       N  0.40834488  0.39277815  0.74327448    -0.38410
N2741       N  0.25493084  0.32297769  0.74555281    -0.37850
N2742       N  0.37370847  0.45035263  0.68025084    -0.37850
C2743       C  0.29484728  0.49117170  0.71921401    -0.04520
C2744       C  0.27959347  0.50234770  0.74849463    -0.01640
C2745       C  0.28858906  0.53336490  0.76049864     0.03350
C2746       C  0.32233042  0.54230340  0.75785465    -0.04520
C2747       C  0.34000823  0.52803579  0.73056319    -0.01620
C2748       C  0.32238808  0.50886755  0.70752289     0.03350
C2749       C  0.25535551  0.48303642  0.76667355     0.38000
C2750       C  0.37544760  0.52497301  0.72925788     0.37990
C2751       C  0.33232705  0.50771662  0.67301126     0.36410
C2752       C  0.26440304  0.55310418  0.77836980     0.36410
N2753       N  0.33981750  0.50736644  0.64524135    -0.38410
N2754       N  0.24451993  0.56846084  0.79217894    -0.38410
N2755       N  0.40370017  0.52107749  0.72753880    -0.37850
N2756       N  0.23614872  0.46886894  0.78257355    -0.37850
C2757       C  0.42570041  0.25320528  0.65294738    -0.04520
C2758       C  0.39443069  0.24325838  0.66682773    -0.01640
C2759       C  0.37208392  0.22475192  0.64732715     0.03350
C2760       C  0.38495761  0.20472559  0.62187610    -0.04520
C2761       C  0.41599436  0.21347622  0.60879235    -0.01620
C2762       C  0.43106296  0.24284168  0.61957819     0.03350
C2763       C  0.38595454  0.24352379  0.70151818     0.38000
C2764       C  0.43438672  0.19089572  0.58796856     0.37990
C2765       C  0.45533075  0.25893650  0.59852724     0.36410
C2766       C  0.33775980  0.22193401  0.65740403     0.36410
N2767       N  0.47424927  0.27209032  0.58142418    -0.38410
N2768       N  0.31062433  0.22052933  0.66632986    -0.38410
N2769       N  0.44928041  0.17249711  0.57181156    -0.37850
N2770       N  0.37539300  0.24047519  0.72809584    -0.37850
C2771       C  0.53405722  0.19502146  0.63834573    -0.04520
C2772       C  0.54211403  0.22896499  0.64361909    -0.01640
C2773       C  0.51676038  0.25236069  0.65001085     0.03350
C2774       C  0.48604967  0.24139393  0.66261882    -0.04520
C2775       C  0.48081715  0.20715049  0.66488204    -0.01620
C2776       C  0.50132991  0.18522793  0.64784743     0.03350
C2777       C  0.57571160  0.23969504  0.64843434     0.38000
C2778       C  0.45624707  0.19404155  0.68768927     0.37990
C2779       C  0.48677551  0.15329781  0.64066574     0.36410
C2780       C  0.52266651  0.28708581  0.64379457     0.36410
N2781       N  0.47367037  0.12839791  0.63576285    -0.38410
N2782       N  0.52737508  0.31474820  0.63821494    -0.38410
N2783       N  0.43827603  0.18323231  0.70724166    -0.37850
N2784       N  0.60199286  0.24941093  0.65368745    -0.37850
C2785       C  0.49290332  0.29848620  0.71156181    -0.04520
C2786       C  0.51362678  0.27734268  0.73011666    -0.01640
C2787       C  0.52932058  0.28974659  0.75808539     0.03350
C2788       C  0.53967683  0.32341324  0.75949865    -0.04520
C2789       C  0.52269392  0.34534116  0.73785914    -0.01620
C2790       C  0.49868084  0.33304431  0.71509787     0.03350
C2791       C  0.51571452  0.24191187  0.72604037     0.38000
C2792       C  0.52709837  0.38068702  0.74073656     0.37990
C2793       C  0.48015806  0.35620865  0.69500812     0.36410
C2794       C  0.52213639  0.27013435  0.78748615     0.36410
N2795       N  0.46590069  0.37520322  0.67904011    -0.38410
N2796       N  0.51440763  0.25355299  0.80969895    -0.38410
N2797       N  0.53002028  0.40909136  0.74176580    -0.37850
N2798       N  0.51911666  0.21354224  0.72556217    -0.37850
C2799       C  0.43105126  0.29604783  0.71837347    -0.04520
C2800       C  0.40469024  0.31593423  0.70718521    -0.01640
C2801       C  0.37670757  0.32149187  0.72802082     0.03350
C2802       C  0.37785440  0.31395053  0.76262701    -0.04520
C2803       C  0.40247279  0.29005981  0.77185664    -0.01620
C2804       C  0.42829325  0.28133942  0.75002548     0.03350
C2805       C  0.40460967  0.32765023  0.67315457     0.38000
C2806       C  0.39949973  0.26928448  0.80128405     0.37990
C2807       C  0.44705859  0.25168509  0.75788635     0.36410
C2808       C  0.34544196  0.32575456  0.71155968     0.36410
N2809       N  0.45894067  0.22698900  0.76609711    -0.38410
N2810       N  0.32118333  0.32784866  0.69670443    -0.38410
N2811       N  0.39894011  0.25173636  0.82401490    -0.37850
N2812       N  0.40442550  0.33687876  0.64593619    -0.37850
C2813       C  0.64243079  0.43089516  0.27874093    -0.04520
C2814       C  0.65615111  0.42168958  0.24823185    -0.01640
C2815       C  0.63614480  0.40463229  0.22630437     0.03350
C2816       C  0.61348467  0.38006757  0.23886883    -0.04520
C2817       C  0.61063194  0.37976321  0.27423331    -0.01620
C2818       C  0.61873948  0.40887921  0.29209906     0.03350
C2819       C  0.68921330  0.43008328  0.23759247     0.38000
C2820       C  0.60571719  0.34979714  0.29308017     0.37990
C2821       C  0.59998453  0.41712687  0.32142953     0.36410
C2822       C  0.63704951  0.41816170  0.19288786     0.36410
N2823       N  0.58323631  0.42379610  0.34377337    -0.38410
N2824       N  0.63858604  0.43047143  0.16693248    -0.38410
N2825       N  0.60277699  0.32608871  0.30896717    -0.37850
N2826       N  0.71511492  0.43500253  0.22642628    -0.37850
C2827       C  0.63783496  0.49540083  0.27468342    -0.04520
C2828       C  0.63093010  0.49128402  0.24065330    -0.01640
C2829       C  0.60451413  0.50830340  0.22736219     0.03350
C2830       C  0.60134682  0.54226739  0.23510834    -0.04520
C2831       C  0.61681290  0.55245144  0.26460803    -0.01620
C2832       C  0.62913057  0.52796910  0.28697080     0.03350
C2833       C  0.65813453  0.49107035  0.21736164     0.38000
C2834       C  0.62025303  0.58730796  0.27202803     0.37990
C2835       C  0.62639699  0.53748631  0.32110495     0.36410
C2836       C  0.58582594  0.49136726  0.20233610     0.36410
N2837       N  0.62127267  0.54988373  0.34645129    -0.38410
N2838       N  0.57165207  0.47642612  0.18261541    -0.38410
N2839       N  0.62353820  0.61514872  0.27753083    -0.37850
N2840       N  0.67857952  0.49243955  0.19720366    -0.37850
C2841       C  0.68649789  0.49541724  0.33279623    -0.04520
C2842       C  0.70702996  0.51563766  0.31272649    -0.01640
C2843       C  0.72145461  0.54422599  0.32612270     0.03350
C2844       C  0.72044958  0.54985732  0.36071048    -0.04520
C2845       C  0.69452588  0.53380074  0.37839853    -0.01620
C2846       C  0.67840557  0.50619360  0.36480630     0.03350
C2847       C  0.71524328  0.50711646  0.27888799     0.38000
C2848       C  0.67469502  0.55075476  0.40243230     0.37990
C2849       C  0.64756728  0.49516505  0.37998170     0.36410
C2850       C  0.73771211  0.56765009  0.30416925     0.36410
N2851       N  0.62181500  0.49086676  0.39179921    -0.38410
N2852       N  0.74993410  0.58599994  0.28578200    -0.38410
N2853       N  0.65451659  0.56029605  0.42033075    -0.37850
N2854       N  0.72380453  0.50212153  0.25194827    -0.37850
C2855       C  0.68544546  0.43244043  0.33563558    -0.04520
C2856       C  0.70953296  0.41420027  0.31812991    -0.01640
C2857       C  0.71840173  0.38296627  0.32975775     0.03350
C2858       C  0.71986607  0.37750056  0.36421891    -0.04520
C2859       C  0.70139512  0.39941720  0.38429623    -0.01620
C2860       C  0.67908554  0.42141638  0.36885700     0.03350
C2861       C  0.73420398  0.43052679  0.29822689     0.38000
C2862       C  0.70185013  0.39764658  0.42018598     0.37990
C2863       C  0.64771413  0.42476700  0.38544301     0.36410
C2864       C  0.71112349  0.35567851  0.30818140     0.36410
N2865       N  0.62361975  0.42417871  0.40101178    -0.38410
N2866       N  0.70361935  0.33434439  0.29071329    -0.38410
N2867       N  0.70048304  0.39726670  0.44887313    -0.37850
N2868       N  0.75580452  0.44261288  0.28376278    -0.37850
C2869       C  0.54935858  0.60289498  0.24838213    -0.04520
C2870       C  0.53543598  0.57984162  0.27149324    -0.01640
C2871       C  0.51300301  0.59076720  0.29643225     0.03350
C2872       C  0.49556082  0.62070777  0.29205112    -0.04520
C2873       C  0.50978534  0.64400065  0.26992723    -0.01620
C2874       C  0.53932624  0.63642552  0.25253994     0.03350
C2875       C  0.53879234  0.54451987  0.26776718     0.38000
C2876       C  0.49313526  0.67469703  0.26224464     0.37990
C2877       C  0.55742957  0.66311552  0.23671494     0.36410
C2878       C  0.50580667  0.56969320  0.32476108     0.36410
N2879       N  0.57148608  0.68486281  0.22444069    -0.38410
N2880       N  0.49995515  0.55227868  0.34687260    -0.38410
N2881       N  0.48082096  0.69942011  0.25481651    -0.37850
N2882       N  0.53983312  0.51598820  0.26602578    -0.37850
C2883       C  0.43236694  0.60495569  0.29487324    -0.04520
C2884       C  0.43789342  0.58053934  0.27037967    -0.01640
C2885       C  0.41593615  0.57667787  0.24357819     0.03350
C2886       C  0.38388093  0.59042341  0.24490348    -0.04520
C2887       C  0.37454628  0.60586157  0.27524784    -0.01620
C2888       C  0.39815249  0.60991187  0.30126660     0.03350
C2889       C  0.45518747  0.55059860  0.27933036     0.38000
C2890       C  0.34108633  0.61744222  0.28009832     0.37990
C2891       C  0.38648809  0.60923996  0.33525988     0.36410
C2892       C  0.42554951  0.55347066  0.21776813     0.36410
N2893       N  0.37709235  0.60786537  0.36241504    -0.38410
N2894       N  0.43626815  0.53448296  0.19916298    -0.38410
N2895       N  0.31427231  0.62659408  0.28392636    -0.37850
N2896       N  0.46660048  0.52499409  0.28511958    -0.37850
C2897       C  0.42625181  0.66747788  0.34183387    -0.04520
C2898       C  0.42153778  0.67327342  0.37622083    -0.01640
C2899       C  0.39779225  0.69653086  0.38715249     0.03350
C2900       C  0.37570574  0.71120888  0.36437433    -0.04520
C2901       C  0.37634232  0.69956484  0.33124130    -0.01620
C2902       C  0.40335289  0.68126244  0.31940354     0.03350
C2903       C  0.44262772  0.65701850  0.40021600     0.38000
C2904       C  0.34835847  0.70355873  0.30955113     0.37990
C2905       C  0.40936319  0.68000333  0.28393652     0.36410
C2906       C  0.39684264  0.70584783  0.42162994     0.36410
N2907       N  0.41441330  0.67909956  0.25569169    -0.38410
N2908       N  0.39579744  0.71389364  0.44910039    -0.38410
N2909       N  0.32631014  0.70409320  0.29144193    -0.37850
N2910       N  0.45917906  0.64410783  0.41965102    -0.37850
C2911       C  0.48789913  0.67630223  0.33995992    -0.04520
C2912       C  0.48437173  0.71137957  0.34205897    -0.01640
C2913       C  0.50804589  0.73041074  0.35891734     0.03350
C2914       C  0.54098009  0.71877676  0.36150595    -0.04520
C2915       C  0.54578955  0.68471268  0.35497010    -0.01620
C2916       C  0.51833739  0.66360597  0.35145680     0.03350
C2917       C  0.45882503  0.72950007  0.32470944     0.38000
C2918       C  0.57722383  0.67125388  0.34530760     0.37990
C2919       C  0.52030026  0.63194473  0.36770667     0.38930
C2920       C  0.49893031  0.76337525  0.36950844     0.36410
N2921       N  0.52296233  0.60817030  0.38346877    -0.38410
N2922       N  0.49134255  0.79000498  0.37651360    -0.38410
N2923       N  0.60073958  0.65851661  0.33515438    -0.37850
N2924       N  0.43982549  0.74568597  0.31074108    -0.37850
C2925       C  0.24724686  0.63466104  0.47924669    -0.04520
C2926       C  0.21320816  0.64179286  0.48150936    -0.01640
C2927       C  0.19049392  0.62377227  0.46258868     0.03350
C2928       C  0.20073966  0.60735710  0.43251871    -0.04520
C2929       C  0.23493268  0.60941968  0.42533599    -0.01620
C2930       C  0.25739517  0.61599530  0.45113261     0.03350
C2931       C  0.20010597  0.66706353  0.50342743     0.38000
C2932       C  0.24767408  0.60924902  0.39177831     0.37990
C2933       C  0.28726376  0.59672185  0.45060568     0.36410
C2934       C  0.15695521  0.62414929  0.47554975     0.36410
N2935       N  0.30946711  0.57881161  0.44867071    -0.38410
N2936       N  0.13067735  0.62650116  0.48673337    -0.38410
N2937       N  0.25872465  0.61007256  0.36523195    -0.37850
N2938       N  0.18674144  0.68683836  0.51931230    -0.37850
C2939       C  0.25453754  0.62652139  0.54063002    -0.04520
C2940       C  0.23628537  0.64535061  0.56395758    -0.01640
C2941       C  0.21267175  0.63009120  0.58503246     0.03350
C2942       C  0.20412848  0.59630053  0.58091232    -0.04520
C2943       C  0.22391665  0.57771037  0.55823688    -0.01620
C2944       C  0.25111359  0.59212183  0.54190802     0.03350
C2945       C  0.23995441  0.68084367  0.56605811     0.38000
C2946       C  0.21401061  0.54635893  0.54489036     0.37990
C2947       C  0.27544108  0.57118158  0.52580659     0.36410
C2948       C  0.19722989  0.65071609  0.60994807     0.36410
N2949       N  0.29487457  0.55349104  0.51445209    -0.38410
N2950       N  0.18751279  0.67001250  0.62877389    -0.38410
N2951       N  0.20830410  0.52284622  0.52972715    -0.37850
N2952       N  0.24022839  0.70909252  0.57002862    -0.37850
C2953       C  0.33372469  0.71988571  0.58692955    -0.04520
C2954       C  0.34836235  0.72044918  0.55475318    -0.01640
C2955       C  0.34386962  0.69398892  0.53268496     0.03350
C2956       C  0.31844290  0.67114370  0.53796269    -0.04520
C2957       C  0.31126600  0.66535385  0.57206619    -0.01620
C2958       C  0.31611582  0.69094287  0.59576741     0.03350
C2959       C  0.36378229  0.74980485  0.54141598     0.38000
C2960       C  0.30885985  0.63184951  0.58444032     0.37990
C2961       C  0.29998579  0.68826926  0.62772166     0.36410
C2962       C  0.37223870  0.68256289  0.51433968     0.36410
N2963       N  0.28558317  0.68557958  0.65245155    -0.38410
N2964       N  0.39589480  0.67183107  0.50228624    -0.38410
N2965       N  0.30751813  0.60528161  0.59508124    -0.37850
N2966       N  0.37536019  0.77291800  0.52913037    -0.37850
C2967       C  0.30365640  0.67916024  0.47513892    -0.04520
C2968       C  0.29265275  0.71182269  0.47251717    -0.01640
C2969       C  0.31033231  0.73345533  0.45222884     0.03350
C2970       C  0.32205419  0.72233609  0.42095890    -0.04520
C2971       C  0.32401395  0.68720970  0.41824630    -0.01620
C2972       C  0.32266896  0.66769291  0.44773747     0.03350
C2973       C  0.25837072  0.71990194  0.47765740     0.38000
C2974       C  0.32169567  0.67044159  0.38685445     0.37990
C2975       C  0.34578594  0.64082130  0.45110758     0.36410
C2976       C  0.32052821  0.76412612  0.46700925     0.36410
N2977       N  0.36560741  0.62035391  0.45359342    -0.38410
N2978       N  0.32860850  0.78819015  0.48001653    -0.38410
N2979       N  0.31871681  0.65633102  0.36212615    -0.37850
N2980       N  0.23132582  0.72862956  0.48051208    -0.37850
C2981       C  0.59474727  0.20552394  0.58807229    -0.04520
C2982       C  0.62808244  0.21499568  0.58879556    -0.01640
C2983       C  0.64168260  0.23399392  0.56276005     0.03350
C2984       C  0.62087142  0.24810842  0.53795380    -0.04520
C2985       C  0.58632428  0.24603611  0.54380550    -0.01620
C2986       C  0.57338875  0.22283747  0.56666092     0.03350
C2987       C  0.64923651  0.20381697  0.61563378     0.38000
C2988       C  0.56355731  0.26758844  0.52664878     0.37990
C2989       C  0.53880084  0.21434672  0.56494058     0.36410
C2990       C  0.67722118  0.23400214  0.56120020     0.36410
N2991       N  0.51121991  0.20757345  0.56276223    -0.38410
N2992       N  0.70544437  0.23097911  0.56377994    -0.38410
N2993       N  0.54407850  0.28485812  0.51484597    -0.37850
N2994       N  0.66716779  0.19644265  0.63664238    -0.37850
C2995       C  0.61886736  0.23504605  0.47608505    -0.04520
C2996       C  0.62975141  0.20217237  0.47479771    -0.01640
C2997       C  0.62368669  0.18291531  0.44632768     0.03350
C2998       C  0.59779941  0.19161921  0.42306556    -0.04520
C2999       C  0.57964657  0.22016843  0.43218863    -0.01620
C3000       C  0.59379889  0.24428536  0.45347978     0.03350
C3001       C  0.64981546  0.18815420  0.50133324     0.38000
C3002       C  0.54443362  0.22122027  0.42717010     0.37990
C3003       C  0.58186223  0.27785871  0.45176677     0.36410
C3004       C  0.64572760  0.15471584  0.44326497     0.36410
N3005       N  0.57193123  0.30457123  0.44932990    -0.38410
N3006       N  0.66477080  0.13332853  0.44335405    -0.38410
N3007       N  0.51605499  0.22203087  0.42445675    -0.37850
N3008       N  0.66590675  0.17494388  0.52097660    -0.37850
C3009       C  0.67009020  0.28493350  0.46010142    -0.04520
C3010       C  0.69254630  0.26377791  0.44374535    -0.01640
C3011       C  0.71887234  0.27772614  0.42531028     0.03350
C3012       C  0.71652503  0.31070942  0.41228848    -0.04520
C3013       C  0.68499848  0.32540572  0.41721262    -0.01620
C3014       C  0.66602550  0.31644552  0.44555278     0.03350
C3015       C  0.69333445  0.22848197  0.44903998     0.38000
C3016       C  0.66614604  0.33567225  0.38872327     0.37990
C3017       C  0.64184895  0.33932677  0.45858895     0.36410
C3018       C  0.74795258  0.25698124  0.42325011     0.36410
N3019       N  0.62280145  0.35790843  0.46916389    -0.38410
N3020       N  0.76940399  0.23805758  0.42433096    -0.38410
N3021       N  0.65022720  0.34311105  0.36614246    -0.37850
N3022       N  0.69913495  0.20057237  0.45101529    -0.37850
C3023       C  0.68078716  0.29392856  0.52189949    -0.04520
C3024       C  0.66931489  0.31178942  0.54994522    -0.01640
C3025       C  0.69178074  0.32080474  0.57560413     0.03350
C3026       C  0.72648855  0.32289390  0.56894468    -0.04520
C3027       C  0.73683756  0.30882845  0.53779109    -0.01620
C3028       C  0.71520478  0.28961157  0.51921559     0.03350
C3029       C  0.63474248  0.32011644  0.55337907     0.38000
C3030       C  0.77022825  0.30913041  0.52452654     0.37990
C3031       C  0.72954510  0.25982606  0.50517383     0.36410
C3032       C  0.67875270  0.32251065  0.60902407     0.36410
N3033       N  0.74361335  0.23609334  0.49752990    -0.38410
N3034       N  0.66727721  0.32270977  0.63541153    -0.38410
N3035       N  0.79631021  0.30665136  0.51293303    -0.37850
N3036       N  0.60725593  0.32732724  0.55640019    -0.37850
C3037       C  0.22066982  0.86732341  0.15175715    -0.04520
C3038       C  0.22522845  0.88159798  0.18365564    -0.01640
C3039       C  0.20965546  0.91172169  0.19270522     0.03350
C3040       C  0.18648219  0.92720142  0.17134127    -0.04520
C3041       C  0.17815807  0.91003398  0.14205055    -0.01620
C3042       C  0.19204319  0.87851171  0.13486815     0.03350
C3043       C  0.24465533  0.86475612  0.20863833     0.38000
C3044       C  0.15549625  0.92479704  0.11866171     0.37990
C3045       C  0.16888468  0.85435417  0.12283803     0.36410
C3046       C  0.22266167  0.92885579  0.22129418     0.36410
N3047       N  0.14911729  0.83569735  0.11417492    -0.38410
N3048       N  0.23578070  0.94139452  0.24336138    -0.38410
N3049       N  0.13791046  0.93687120  0.09960849    -0.37850
N3050       N  0.25921740  0.85245679  0.23000651    -0.37850
C3051       C  0.13265562  0.99554761  0.21872130    -0.04520
C3052       C  0.15413398  0.01890177  0.23311922    -0.01640
C3053       C  0.14157025  0.04652274  0.25075514     0.03350
C3054       C  0.10789196  0.04840216  0.26093805    -0.04520
C3055       C  0.08613544  0.02560824  0.24622210    -0.01620
C3056       C  0.09804641  0.00107931  0.22376855     0.03350
C3057       C  0.18957164  0.01435578  0.23137930     0.38000
C3058       C  0.05114339  0.02711336  0.25360214     0.37990
C3059       C  0.07360416  0.98398588  0.20433491     0.36410
C3060       C  0.16323631  0.07456427  0.25426257     0.36410
N3061       N  0.05199954  0.97282281  0.18945690    -0.38410
N3062       N  0.18168256  0.09635354  0.25427749    -0.38410
N3063       N  0.02304296  0.02764384  0.25880847    -0.37850
N3064       N  0.21792281  0.01110531  0.23066477    -0.37850
C3065       C  0.18812088  0.99047905  0.15919979    -0.04520
C3066       C  0.21934632  0.98491490  0.14366915    -0.01640
C3067       C  0.23025663  0.00623410  0.11887924     0.03350
C3068       C  0.22401872  0.03979792  0.12232619    -0.04520
C3069       C  0.19438864  0.04830374  0.13914179    -0.01620
C3070       C  0.17393588  0.02244274  0.15247322     0.03350
C3071       C  0.24598340  0.96854534  0.16068058     0.38000
C3072       C  0.18432630  0.08249599  0.14157960     0.37990
C3073       C  0.13892155  0.02853001  0.15485401     0.36410
C3074       C  0.24856014  0.99421848  0.09053494     0.36410
N3075       N  0.11096806  0.03438106  0.15535119    -0.38410
N3076       N  0.26145954  0.98500833  0.06657538    -0.38410
N3077       N  0.17622142  0.10984482  0.14366782    -0.37850
N3078       N  0.26899549  0.95776328  0.17373470    -0.37850
C3079       C  0.13425008  0.93253672  0.21912560    -0.04520
C3080       C  0.10643773  0.91429717  0.20864057    -0.01640
C3081       C  0.09036807  0.89310461  0.23185210     0.03350
C3082       C  0.10912554  0.87868323  0.25813375    -0.04520
C3083       C  0.14248482  0.88963093  0.25987919    -0.01620
C3084       C  0.15012309  0.92112977  0.24780774     0.03350
C3085       C  0.09383179  0.91737085  0.17530368     0.38000
C3086       C  0.16832483  0.87108990  0.27626711     0.37990
C3087       C  0.16816714  0.94329535  0.26916498     0.36410
C3088       C  0.05479215  0.89252493  0.23110347     0.36410
N3089       N  0.18151723  0.96072597  0.28741890    -0.38410
N3090       N  0.02628779  0.89363684  0.22981355    -0.38410
N3091       N  0.18969261  0.85680469  0.28875662    -0.37850
N3092       N  0.08325986  0.91906310  0.14872920    -0.37850
C3093       C  0.99947451  0.18230318  0.17323477    -0.04520
C3094       C  0.02051795  0.19936679  0.19528256    -0.01640
C3095       C  0.04922190  0.21582712  0.18314172     0.03350
C3096       C  0.05783768  0.21555425  0.14870279    -0.04520
C3097       C  0.04121318  0.19131252  0.12955029    -0.01620
C3098       C  0.01007786  0.17909152  0.13991364     0.03350
C3099       C  0.01051356  0.20380792  0.22962953     0.38000
C3100       C  0.06003462  0.16861862  0.10936947     0.37990
C3101       C  0.99007241  0.16092738  0.11644933     0.36410
C3102       C  0.07033490  0.23209313  0.20685206     0.36410
N3103       N  0.97406536  0.14653614  0.09771549    -0.38410
N3104       N  0.08657209  0.24417504  0.22697764    -0.38410
N3105       N  0.07413417  0.14870365  0.09431450    -0.37850
N3106       N  0.00225403  0.20807010  0.25683420    -0.37850
C3107       C  0.93298067  0.12266578  0.21662585    -0.04520
C3108       C  0.90200660  0.13702140  0.22513329    -0.01640
C3109       C  0.87641114  0.11665415  0.23829658     0.03350
C3110       C  0.88494348  0.08873682  0.25765659    -0.04520
C3111       C  0.91710288  0.07611884  0.25207600    -0.01620
C3112       C  0.93651651  0.08884508  0.22572339     0.03350
C3113       C  0.89873572  0.17230771  0.22857967     0.38000
C3114       C  0.93281506  0.05381711  0.27514687     0.37990
C3115       C  0.96187181  0.06822890  0.21094793     0.36410
C3116       C  0.84223474  0.12425903  0.23168777     0.36410
N3117       N  0.98160397  0.05134079  0.19887183    -0.38410
N3118       N  0.81494118  0.13019001  0.22583021    -0.38410
N3119       N  0.94696087  0.03603885  0.29254852    -0.37850
N3120       N  0.89710159  0.20052138  0.23277005    -0.37850
C3121       C  0.99516553  0.13056859  0.22703142    -0.04520
C3122       C  0.02562941  0.11896021  0.21319870    -0.01640
C3123       C  0.05254197  0.10910170  0.23416138     0.03350
C3124       C  0.04707077  0.10142234  0.26830534    -0.04520
C3125       C  0.01424275  0.10635321  0.27994570    -0.01620
C3126       C  0.99159270  0.12589391  0.26186075     0.03350
C3127       C  0.02850621  0.11271488  0.17802601     0.38000
C3128       C  0.00308838  0.09102345  0.31061291     0.37990
C3129       C  0.96452949  0.14116645  0.27977187     0.36410
C3130       C  0.08537705  0.10805274  0.22009881     0.36410
N3131       N  0.94334744  0.15367740  0.29441393    -0.38410
N3132       N  0.11128408  0.10800935  0.20788989    -0.38410
N3133       N  0.99342494  0.07851149  0.33463106    -0.37850
N3134       N  0.03128878  0.10591723  0.15027232    -0.37850
C3135       C  0.93649396  0.18799052  0.16683842    -0.04520
C3136       C  0.90710450  0.17411966  0.15275388    -0.01640
C3137       C  0.88098524  0.19532083  0.14047177     0.03350
C3138       C  0.88754070  0.22892935  0.13185541    -0.04520
C3139       C  0.91976717  0.23954418  0.13867382    -0.01620
C3140       C  0.93988588  0.22268191  0.16147840     0.03350
C3141       C  0.90364611  0.13877543  0.14939807     0.38000
C3142       C  0.93303263  0.26747223  0.12091381     0.37990
C3143       C  0.96055396  0.24322740  0.18203484     0.36410
C3144       C  0.84760652  0.18304794  0.13983081     0.36410
N3145       N  0.97562197  0.26124379  0.19824513    -0.38410
N3146       N  0.82078657  0.17333200  0.14063203    -0.38410
N3147       N  0.94412455  0.28866055  0.10517565    -0.37850
N3148       N  0.90064965  0.11053118  0.14616563    -0.37850
C3149       C  0.13378443  0.19429823  0.96388349    -0.04520
C3150       C  0.12699937  0.22800347  0.96990472    -0.01640
C3151       C  0.10174292  0.24383528  0.95252457     0.03350
C3152       C  0.09457912  0.23497989  0.91921977    -0.04520
C3153       C  0.10755445  0.20394679  0.90888811    -0.01620
C3154       C  0.12183993  0.18187847  0.93288638     0.03350
C3155       C  0.14445156  0.24702238  0.99471254     0.38000
C3156       C  0.10655119  0.19440005  0.87433165     0.37990
C3157       C  0.11917442  0.14696749  0.92660983     0.36410
C3158       C  0.08209084  0.26725218  0.97114114     0.36410
N3159       N  0.11462610  0.11950208  0.92028448    -0.38410
N3160       N  0.06729701  0.28477673  0.98831815    -0.38410
N3161       N  0.10622316  0.18661622  0.84670567    -0.37850
N3162       N  0.15773663  0.26388777  0.01352467    -0.37850
C3163       C  0.18755798  0.13564637  0.02206834    -0.04520
C3164       C  0.21722024  0.14901417  0.03435922    -0.01640
C3165       C  0.22881212  0.13857635  0.06545326     0.03350
C3166       C  0.22431864  0.10511808  0.07504860    -0.04520
C3167       C  0.19646058  0.08913191  0.06011633    -0.01620
C3168       C  0.17520689  0.10753094  0.03880998     0.03350
C3169       C  0.23726366  0.17225573  0.01580575     0.38000
C3170       C  0.19114646  0.05393117  0.06089827     0.37990
C3171       C  0.14133318  0.09741640  0.03419635     0.36410
C3172       C  0.24752057  0.16159706  0.08546643     0.36410
N3173       N  0.11399239  0.08982284  0.03126328    -0.38410
N3174       N  0.26192983  0.18063371  0.10109414    -0.38410
N3175       N  0.18535128  0.02596486  0.05968441    -0.37850
N3176       N  0.25507847  0.19050757  0.00273327    -0.37850
C3177       C  0.13027102  0.18304128  0.02706738    -0.04520
C3178       C  0.14750492  0.19324821  0.05612272    -0.01640
C3179       C  0.12966229  0.20375576  0.08421702     0.03350
C3180       C  0.09938315  0.21981767  0.07997017    -0.04520
C3181       C  0.08135172  0.21074073  0.05124299    -0.01620
C3182       C  0.09554204  0.18827798  0.02790778     0.03350
C3183       C  0.18014335  0.20699270  0.05462260     0.38000
C3184       C  0.04732109  0.22046439  0.04726857     0.37990
C3185       C  0.07470778  0.17102048  0.00460284     0.36410
C3186       C  0.14091606  0.19521330  0.11711631     0.36410
N3187       N  0.05813261  0.15635415  0.98662234    -0.38410
N3188       N  0.14927159  0.18772086  0.14351830    -0.38410
N3189       N  0.01982222  0.22651258  0.04266988    -0.37850
N3190       N  0.20496412  0.22106739  0.05520673    -0.37850
C3191       C  0.18794326  0.13870906  0.95875584    -0.04520
C3192       C  0.21071508  0.15931076  0.94243763    -0.01640
C3193       C  0.23621237  0.14520759  0.92247434     0.03350
C3194       C  0.23315384  0.11223211  0.90872298    -0.04520
C3195       C  0.20273545  0.09682181  0.91695821    -0.01620
C3196       C  0.18546404  0.10599674  0.94628941     0.03350
C3197       C  0.20915039  0.19484297  0.94722085     0.38000
C3198       C  0.18212665  0.08378369  0.89104637     0.37990
C3199       C  0.16264634  0.08225710  0.96022950     0.36410
C3200       C  0.26512199  0.16575677  0.91910213     0.36410
N3201       N  0.14471719  0.06202865  0.96963346    -0.38410
N3202       N  0.28725844  0.18379131  0.91866151    -0.38410
N3203       N  0.16390797  0.07455865  0.87109658    -0.37850
N3204       N  0.20822206  0.22323521  0.95048679    -0.37850
C3205       C  0.49214015  0.23919300  0.33211483    -0.04520
C3206       C  0.49523085  0.20593616  0.32215356    -0.01640
C3207       C  0.52591180  0.19069921  0.32339333     0.03350
C3208       C  0.54911824  0.19952368  0.34806105    -0.04520
C3209       C  0.54892835  0.23367824  0.35560214    -0.01620
C3210       C  0.52024942  0.25348931  0.34815852     0.03350
C3211       C  0.46863548  0.18692573  0.30773363     0.38000
C3212       C  0.57955939  0.24942254  0.36464615     0.37990
C3213       C  0.51934984  0.28761609  0.35862275     0.36410
C3214       C  0.53514808  0.17068502  0.29495797     0.36410
N3215       N  0.51888244  0.31480897  0.36741927    -0.38410
N3216       N  0.54138832  0.15555803  0.27140315    -0.38410
N3217       N  0.60416615  0.26227955  0.37116142    -0.37850
N3218       N  0.44875082  0.16979014  0.29658784    -0.37850
C3219       C  0.38282246  0.32939440  0.23815744    -0.04520
C3220       C  0.37595466  0.31917964  0.27129356    -0.01640
C3221       C  0.40242589  0.30829820  0.29244553     0.03350
C3222       C  0.43350824  0.29850709  0.27835140    -0.04520
C3223       C  0.43755752  0.30558669  0.24407294    -0.01620
C3224       C  0.41568205  0.32653126  0.22782843     0.03350
C3225       C  0.34242715  0.31909931  0.28352142     0.38000
C3226       C  0.45989086  0.28746379  0.22279637     0.37990
C3227       C  0.42841792  0.34863578  0.20300220     0.36410
C3228       C  0.39785648  0.30955946  0.32800737     0.36410
N3229       N  0.43896381  0.36800929  0.18476279    -0.38410
N3230       N  0.39394664  0.31145671  0.35642182    -0.38410
N3231       N  0.47568343  0.27281919  0.20386244    -0.37850
N3232       N  0.31550678  0.31847454  0.29317636    -0.37850
C3233       C  0.37706318  0.20182514  0.36013452    -0.04520
C3234       C  0.37774949  0.21187493  0.32635241    -0.01640
C3235       C  0.40493506  0.22937744  0.31291565     0.03350
C3236       C  0.42911247  0.24312162  0.33405047    -0.04520
C3237       C  0.42464825  0.23881380  0.36873009    -0.01620
C3238       C  0.39996678  0.21730850  0.38155465     0.03350
C3239       C  0.34803567  0.21079604  0.30683324     0.38000
C3240       C  0.44524814  0.25707945  0.39155798     0.37990
C3241       C  0.39707240  0.21376567  0.41713358     0.36410
C3242       C  0.40931984  0.22953680  0.27716659     0.36410
N3243       N  0.39555434  0.21330719  0.44579690    -0.38410
N3244       N  0.41300461  0.22851505  0.24867601    -0.38410
N3245       N  0.46097405  0.27194906  0.41014746    -0.37850
N3246       N  0.32447572  0.21282284  0.29086970    -0.37850
C3247       C  0.49683490  0.29608763  0.28574564    -0.04520
C3248       C  0.50466347  0.33024439  0.28759048    -0.01640
C3249       C  0.53270147  0.34324253  0.27044094     0.03350
C3250       C  0.55465000  0.32169233  0.25316431    -0.04520
C3251       C  0.55051294  0.28751192  0.25892334    -0.01620
C3252       C  0.52010123  0.27505162  0.27011588     0.03350
C3253       C  0.48238963  0.35244346  0.30490231     0.38000
C3254       C  0.57731486  0.26459161  0.25315278     0.37990
C3255       C  0.51075054  0.24257708  0.25859769     0.36410
C3256       C  0.53681717  0.37878958  0.26850108     0.36410
N3257       N  0.50316088  0.21762808  0.24696917    -0.38410
N3258       N  0.53917816  0.40725448  0.26688162    -0.38410
N3259       N  0.59818917  0.24523392  0.25048588    -0.37850
N3260       N  0.46456395  0.37013466  0.31869418    -0.37850
C3261       C  0.24554789  0.43221744  0.34269552    -0.04520
C3262       C  0.21641521  0.43378194  0.36186552    -0.01640
C3263       C  0.20733852  0.40574554  0.37973538     0.03350
C3264       C  0.20897368  0.37564373  0.36297493    -0.04520
C3265       C  0.23319358  0.37364067  0.33773598    -0.01620
C3266       C  0.25657394  0.39956079  0.33525929     0.03350
C3267       C  0.18918762  0.45163310  0.34780443     0.38000
C3268       C  0.23355574  0.34685199  0.31417092     0.37990
C3269       C  0.29095647  0.39071070  0.33754763     0.36410
C3270       C  0.21190677  0.40646370  0.41505873     0.36410
N3271       N  0.31819573  0.38274845  0.34070686    -0.38410
N3272       N  0.21668635  0.40820830  0.44326152    -0.38410
N3273       N  0.23396916  0.32495725  0.29577530    -0.37850
N3274       N  0.16667044  0.46444325  0.33588082    -0.37850
C3275       C  0.28799577  0.49981282  0.28618193    -0.04520
C3276       C  0.27068219  0.51461485  0.25957765    -0.01640
C3277       C  0.28080014  0.54602407  0.24839544     0.03350
C3278       C  0.31526617  0.55281889  0.24897853    -0.04520
C3279       C  0.33312222  0.53615437  0.27459583    -0.01620
C3280       C  0.31539997  0.51725115  0.29789451     0.03350
C3281       C  0.24870446  0.49594431  0.23852004     0.38000
C3282       C  0.36636205  0.52457560  0.27007720     0.37990
C3283       C  0.32702309  0.51375672  0.33155685     0.36410
C3284       C  0.25750115  0.56691755  0.23095906     0.36410
N3285       N  0.33607612  0.51173150  0.35868160    -0.38410
N3286       N  0.23847806  0.58334856  0.21732612    -0.38410
N3287       N  0.39177751  0.51177975  0.26769767    -0.37850
N3288       N  0.23200270  0.48196374  0.22007093    -0.37850
C3289       C  0.21222292  0.55127222  0.37285248    -0.04520
C3290       C  0.23121474  0.52948272  0.39280660    -0.01640
C3291       C  0.24994678  0.50360781  0.37762468     0.03350
C3292       C  0.24582934  0.49643696  0.34332438    -0.04520
C3293       C  0.22598363  0.51843632  0.32473118    -0.01620
C3294       C  0.21633976  0.54853958  0.33827818     0.03350
C3295       C  0.23012138  0.53215394  0.42858262     0.38000
C3296       C  0.20680593  0.50754772  0.29668629     0.37990
C3297       C  0.20897011  0.57555493  0.31593555     0.36410
C3298       C  0.27062693  0.48242249  0.39774732     0.36410
N3299       N  0.20501742  0.59657680  0.29683253    -0.38410
N3300       N  0.28712480  0.46535351  0.41371229    -0.38410
N3301       N  0.18877888  0.50000326  0.27585470    -0.37850
N3302       N  0.22931742  0.53397301  0.45723052    -0.37850
C3303       C  0.29311487  0.43660852  0.28164906    -0.04520
C3304       C  0.27204351  0.41508326  0.26421136    -0.01640
C3305       C  0.28482213  0.38690304  0.24776484     0.03350
C3306       C  0.31950928  0.38147786  0.24433608    -0.04520
C3307       C  0.34057183  0.40248419  0.26268840    -0.01620
C3308       C  0.32743693  0.42896775  0.28182176     0.03350
C3309       C  0.23663654  0.42079544  0.26440346     0.38000
C3310       C  0.37613012  0.39891941  0.26095229     0.37990
C3311       C  0.34976315  0.44596069  0.30381968     0.36410
C3312       C  0.26139612  0.36375666  0.23392148     0.36410
N3313       N  0.36943130  0.45714954  0.32116965    -0.38410
N3314       N  0.24134281  0.34621453  0.22376921    -0.38410
N3315       N  0.40465762  0.39767601  0.26040069    -0.37850
N3316       N  0.20832802  0.42457441  0.26474285    -0.37850
C3317       C  0.23863561  0.29273418  0.53166411    -0.04520
C3318       C  0.20461392  0.28496047  0.53552235    -0.01640
C3319       C  0.18405261  0.30669023  0.55264211     0.03350
C3320       C  0.19639879  0.32469266  0.57917575    -0.04520
C3321       C  0.22896943  0.33668412  0.57337859    -0.01620
C3322       C  0.25056642  0.31940328  0.55102307     0.03350
C3323       C  0.18801646  0.25933884  0.51736827     0.38000
C3324       C  0.23447866  0.37178377  0.57552747     0.37990
C3325       C  0.28345408  0.33200508  0.54476455     0.36410
C3326       C  0.15182482  0.31470265  0.53899817     0.36410
N3327       N  0.30954152  0.34259973  0.53996654    -0.38410
N3328       N  0.12667489  0.32061238  0.52685239    -0.38410
N3329       N  0.23879074  0.40002066  0.57516862    -0.37850
N3330       N  0.17146736  0.23994786  0.50475156    -0.37850
C3331       C  0.28883812  0.24094657  0.46507810    -0.04520
C3332       C  0.27119399  0.21216140  0.45648333    -0.01640
C3333       C  0.28415719  0.18882779  0.43346391     0.03350
C3334       C  0.31267288  0.19611260  0.41336307    -0.04520
C3335       C  0.32221880  0.22969496  0.41453357    -0.01620
C3336       C  0.31530618  0.24924349  0.44306205     0.03350
C3337       C  0.23898264  0.20538836  0.47023501     0.38000
C3338       C  0.32865781  0.24756399  0.38410796     0.37990
C3339       C  0.33640965  0.27741010  0.44759098     0.36410
C3340       C  0.26587918  0.15811823  0.43090303     0.36410
N3341       N  0.35527413  0.29882522  0.44817428    -0.38410
N3342       N  0.24999022  0.13437871  0.43104879    -0.38410
N3343       N  0.33260071  0.26329350  0.36038730    -0.37850
N3344       N  0.21306670  0.19596882  0.47755930    -0.37850
C3345       C  0.29426648  0.24481273  0.52930985    -0.04520
C3346       C  0.32851986  0.24670091  0.53486438    -0.01640
C3347       C  0.34427196  0.22228451  0.55396168     0.03350
C3348       C  0.32600002  0.20383844  0.57773057    -0.04520
C3349       C  0.29171704  0.20975781  0.57941354    -0.01620
C3350       C  0.27585143  0.22530347  0.55238364     0.03350
C3351       C  0.34809111  0.27403130  0.52290399     0.38000
C3352       C  0.27188619  0.19523973  0.60583935     0.37990
C3353       C  0.24253194  0.21471756  0.54674004     0.36410
C3354       C  0.37586548  0.21139677  0.54146526     0.36410
N3355       N  0.21698140  0.20212590  0.54560577    -0.38410
N3356       N  0.39999121  0.20366224  0.52811597    -0.38410
N3357       N  0.25529023  0.18409160  0.62647510    -0.37850
N3358       N  0.36504651  0.29600568  0.51603556    -0.37850
C3359       C  0.24038366  0.29871938  0.46829919    -0.04520
C3360       C  0.20763071  0.30850683  0.46961223    -0.01640
C3361       C  0.19009765  0.30242795  0.44119106     0.03350
C3362       C  0.20276019  0.31623104  0.41190530    -0.04520
C3363       C  0.23829072  0.31830101  0.41076067    -0.01620
C3364       C  0.25694241  0.31141588  0.44010475     0.03350
C3365       C  0.20273681  0.34025589  0.48532796     0.38000
C3366       C  0.25713260  0.31700719  0.38057941     0.37990
C3367       C  0.28595035  0.33115531  0.44564919     0.36410
C3368       C  0.17693380  0.26945893  0.43795352     0.36410
N3369       N  0.30756432  0.34915351  0.45038178    -0.38410
N3370       N  0.16683141  0.24295168  0.43454237    -0.38410
N3371       N  0.27529393  0.31356676  0.35861587    -0.37850
N3372       N  0.20033055  0.36512207  0.49926877    -0.37850
loop_ 
_geom_bond_atom_site_label_1 
_geom_bond_atom_site_label_2 
_geom_bond_distance 
_geom_bond_site_symmetry_2 
_ccdc_geom_bond_type 
C1            C2   1.387       .  D
C1         C3317   1.529       .  S
C1         C3359   1.520       .  S
C2         C3331   1.545       .  S
C2         C3345   1.523       .  S
C3            C4   1.384       .  D
C3         C3275   1.506       .  S
C3         C3303   1.524       .  S
C4         C3261   1.531       .  S
C4         C3292   1.532       .  S
C5            C6   1.401       .  D
C5         C3222   1.549       .  S
C5         C3247   1.531       .  S
C6         C3205   1.536       .  S
C6         C3236   1.527       .  S
C7            C8   1.399       .  D
C7         C3163   1.518   1_556  S
C7         C3191   1.530       .  S
C8         C3149   1.546       .  S
C8         C3177   1.551   1_556  S
C9           C10   1.420       .  D
C9         C3107   1.547       .  S
C9         C3121   1.568       .  S
C10        C3093   1.530       .  S
C10        C3135   1.574       .  S
C11          C12   1.408       .  D
C11        C3051   1.542       .  S
C11        C3079   1.514       .  S
C12        C3040   1.542       .  S
C12        C3065   1.554       .  S
C13          C14   1.388       .  D
C13        C3009   1.526       .  S
C13        C3023   1.526       .  S
C14        C2984   1.530       .  S
C14        C2995   1.520       .  S
C15          C16   1.389       .  D
C15        C2956   1.559       .  S
C15        C2967   1.530       .  S
C16        C2925   1.527       .  S
C16        C2939   1.510       .  S
C17          C18   1.409       .  D
C17        C2897   1.505       .  S
C17        C2911   1.545       .  S
C18        C2872   1.534       .  S
C18        C2883   1.582       .  S
C19          C20   1.379       .  D
C19        C2841   1.486       .  S
C19        C2855   1.530       .  S
C20        C2813   1.516       .  S
C20        C2827   1.564       .  S
C21          C22   1.389       .  D
C21        C2757   1.550       .  S
C21        C2774   1.512       .  S
C22        C2785   1.534       .  S
C22        C2799   1.505       .  S
C23          C24   1.375       .  D
C23        C2729   1.517       .  S
C23        C2743   1.485       .  S
C24        C2701   1.535       .  S
C24        C2715   1.522       .  S
C25          C26   1.424   1_554  D
C25        C2648   1.545       .  S
C25        C2662   1.566   1_554  S
C26        C2673   1.542   1_556  S
C26        C2687   1.574       .  S
C27          C28   1.414       .  D
C27        C2617   1.541   1_556  S
C27        C2634   1.555       .  S
C28        C2589   1.573   1_556  S
C28        C2603   1.529       .  S
C29          C30   1.424       .  D
C29        C2561   1.548       .  S
C29        C2578   1.539       .  S
C30        C2536   1.547       .  S
C30        C2547   1.561       .  S
C31          C32   1.405       .  D
C31        C2508   1.560       .  S
C31        C2519   1.524       .  S
C32        C2477   1.549       .  S
C32        C2494   1.537       .  S
C33          C34   1.425       .  D
C33        C2449   1.562       .  S
C33        C2463   1.550       .  S
C34        C2421   1.544       .  S
C34        C2435   1.558       .  S
C35          C36   1.412       .  D
C35        C2393   1.543       .  S
C35        C2407   1.545       .  S
C36        C2365   1.549       .  S
C36        C2379   1.541       .  S
N37          N38   1.317       .  A
N37          N43   1.311       .  A
N37         Mn66   2.179   1_556  S
N38          C45   1.352       .  A
N39          N41   1.311       .  A
N39          N40   1.316       .  A
N39         Mn55   2.145       .  S
N40          C46   1.343       .  A
N41          N42   1.322       .  A
N41         Mn66   2.226       .  S
N42          C46   1.360       .  A
N43          N44   1.319       .  A
N43         Mn55   2.177   1_556  S
N44          C45   1.349       .  A
C45        C2298   1.472       .  S
C46        C2267   1.477       .  S
N47          N53   1.320       .  A
N47          N48   1.331       .  A
N47         Mn77   2.257       .  S
N48          C56   1.364       .  A
N49          N50   1.303       .  A
N49          N51   1.314       .  A
N49         Mn55   2.127   1_556  S
N50          C57   1.336       .  A
N51          N52   1.325       .  A
N51         Mn77   2.225   1_556  S
N52          C57   1.363       .  A
N53          N54   1.312       .  A
N53         Mn55   2.168       .  S
N54          C56   1.339       .  A
Mn55        Cl79   2.489       .  S
C56        C2326   1.483       .  S
C57        C2354   1.480       .  S
N58          N59   1.310       .  A
N58          N64   1.312       .  A
N58         Mn66   2.159       .  S
N59          C67   1.348       .  A
N60          N62   1.312       .  A
N60          N61   1.314       .  A
N60         Mn78   2.186   1_556  S
N61          C68   1.352       .  A
N62          N63   1.322       .  A
N62         Mn66   2.196   1_556  S
N63          C68   1.357       .  A
N64          N65   1.318       .  A
N64         Mn78   2.185       .  S
N65          C67   1.353       .  A
Mn66        Cl79   2.576       .  S
C67        C2281   1.483       .  S
C68        C2256   1.502       .  S
N69          N70   1.326       .  A
N69          N75   1.318       .  A
N69         Mn77   2.230   1_556  S
N70          C80   1.359       .  A
N71          N72   1.311       .  A
N71          N73   1.319       .  A
N71         Mn78   2.174       .  S
N72          C81   1.342       .  A
N73          N74   1.334       .  A
N73         Mn77   2.257       .  S
N74          C81   1.366       .  A
N75          N76   1.316       .  A
N75         Mn78   2.192   1_556  S
N76          C80   1.349       .  A
Mn77        Cl79   2.599       .  S
Mn78        Cl79   2.488       .  S
C80        C2309   1.498       .  S
C81        C2337   1.506       .  S
N82          N83   1.313       .  A
N82          N88   1.310       .  A
N82        Mn111   2.170       .  S
N83          C90   1.352       .  A
N84          N86   1.312       .  A
N84          N85   1.314       .  A
N84        Mn100   2.163   1_554  S
N85          C91   1.347       .  A
N86          N87   1.321       .  A
N86        Mn111   2.213   1_554  S
N87          C91   1.360       .  A
N88          N89   1.315       .  A
N88        Mn100   2.171       .  S
N89          C90   1.352       .  A
C90        C2186   1.487       .  S
C91        C2141   1.495       .  S
N92          N98   1.318       .  A
N92          N93   1.326       .  A
N92        Mn122   2.230   1_554  S
N93         C101   1.360       .  A
N94          N95   1.313       .  A
N94          N96   1.318       .  A
N94        Mn100   2.166       .  S
N95         C102   1.341       .  A
N96          N97   1.330       .  A
N96        Mn122   2.259       .  S
N97         C102   1.364       .  A
N98          N99   1.314       .  A
N98        Mn100   2.186   1_554  S
N99         C101   1.344       .  A
Mn100      Cl124   2.494       .  S
C101       C2197   1.481       .  S
C102       C2239   1.487       .  S
N103        N104   1.317       .  A
N103        N109   1.311       .  A
N103       Mn111   2.181   1_554  S
N104        C112   1.352       .  A
N105        N107   1.312       .  A
N105        N106   1.314       .  A
N105       Mn123   2.153       .  S
N106        C113   1.344       .  A
N107        N108   1.325       .  A
N107       Mn111   2.230       .  S
N108        C113   1.363       .  A
N109        N110   1.319       .  A
N109       Mn123   2.187   1_554  S
N110        C112   1.353       .  A
Mn111      Cl124   2.573       .  S
C112       C2158   1.486       .  S
C113       C2172   1.491       .  S
N114        N115   1.329       .  A
N114        N120   1.318       .  A
N114       Mn122   2.230       .  S
N115        C125   1.362       .  A
N116        N117   1.314       .  A
N116        N118   1.320       .  A
N116       Mn123   2.149   1_554  S
N117        C126   1.337       .  A
N118        N119   1.326       .  A
N118       Mn122   2.252   1_554  S
N119        C126   1.360       .  A
N120        N121   1.310       .  A
N120       Mn123   2.179       .  S
N121        C125   1.344       .  A
Mn122      Cl124   2.594       .  S
Mn123      Cl124   2.494       .  S
C125       C2211   1.496       .  S
C126       C2225   1.472       .  S
C127        C128   1.414       .  D
C127       C2242   1.527       .  S
C127       C2631   1.589       .  S
C128       C2127   1.560       .  S
C128       C2564   1.525       .  S
C129        C130   1.410       .  D
C129       C2113   1.507       .  S
C129       C2424   1.541       .  S
C130       C2099   1.574       .  S
C130       C2228   1.571       .  S
N131        N132   1.343       .  A
N131        N137   1.319       .  A
N131       Mn160   2.311       .  S
N132        C139   1.376       .  A
N133        N135   1.320       .  A
N133        N134   1.314       .  A
N133       Mn149   2.192   1_455  S
N134        C140   1.343       .  A
N135        N136   1.330       .  A
N135       Mn160   2.251   1_455  S
N136        C140   1.364       .  A
N137        N138   1.309       .  A
N137       Mn149   2.162       .  S
N138        C139   1.340       .  A
C139       C2130   1.522       .  S
C140       C2085   1.488       .  S
N141        N147   1.308       .  A
N141        N142   1.313   1_655  A
N141       Mn171   2.143       .  S
N142        C150   1.346       .  A
N143        N144   1.324       .  A
N143        N145   1.310       .  A
N143       Mn149   2.214       .  S
N144        C151   1.361       .  A
N145        N146   1.309       .  A
N145       Mn171   2.148       .  S
N146        C151   1.344       .  A
N147        N148   1.315   1_655  A
N147       Mn149   2.169       .  S
N148        C150   1.350       .  A
Mn149      Cl173   2.496       .  S
C150       C2029   1.468       .  S
C151       C2001   1.494       .  S
N152        N153   1.337   1_655  A
N152        N158   1.319       .  A
N152       Mn160   2.313       .  S
N153        C161   1.376       .  A
N154        N156   1.324       .  A
N154        N155   1.317       .  A
N154       Mn172   2.204       .  S
N155        C162   1.346       .  A
N156        N157   1.325       .  A
N156       Mn160   2.241       .  S
N157        C162   1.358       .  A
N158        N159   1.311   1_655  A
N158       Mn172   2.143       .  S
N159        C161   1.335       .  A
Mn160      Cl173   2.602       .  S
C161       C2057   1.516       .  S
C162       C2071   1.486       .  S
N163        N164   1.313       .  A
N163        N169   1.310       .  A
N163       Mn171   2.156       .  S
N164        C174   1.344       .  A
N165        N166   1.327   1_655  A
N165        N167   1.310       .  A
N165       Mn172   2.232       .  S
N166        C175   1.362       .  A
N167        N168   1.313   1_655  A
N167       Mn171   2.149       .  S
N168        C175   1.345       .  A
N169        N170   1.324       .  A
N169       Mn172   2.203       .  S
N170        C174   1.356       .  A
Mn171      Cl173   2.570       .  S
Mn172      Cl173   2.508       .  S
C174       C2043   1.470       .  S
C175       C2015   1.499       .  S
C176        C177   1.417       .  D
C176       C2088   1.526       .  S
C176       C2575   1.568       .  S
C177       C2312   1.532       .  S
C177       C3152   1.541       .  S
C178        C179   1.387       .  D
C178       C1973   1.507       .  S
C178       C2214   1.532       .  S
C179       C1987   1.541       .  S
C179       C2074   1.519       .  S
C180        C181   1.394       .  D
C180       C2351   1.496       .  S
C180       C2659   1.533       .  S
C181       C1959   1.553       .  S
C181       C2060   1.576       .  S
C182        C183   1.398       .  D
C182       C1945   1.541       .  S
C182       C3138   1.560       .  S
C183       C2200   1.522       .  S
C183       C2620   1.533       .  S
N184        N185   1.327       .  A
N184        N190   1.319       .  A
N184       Mn213   2.237       .  S
N185        C192   1.361       .  A
N186        N188   1.320       .  A
N186        N187   1.307       .  A
N186       Mn202   2.171   1_455  S
N187        C193   1.337       .  A
N188        N189   1.335       .  A
N188       Mn213   2.268   1_455  S
N189        C193   1.368       .  A
N190        N191   1.315       .  A
N190       Mn202   2.177       .  S
N191        C192   1.341       .  A
C192       C2116   1.481       .  S
C193       C1931   1.514       .  S
N194        N200   1.308       .  A
N194        N195   1.324       .  A
N194       Mn224   2.215   1_455  S
N195        C203   1.362       .  A
N196        N197   1.321       .  A
N196        N198   1.314       .  A
N196       Mn202   2.188       .  S
N197        C204   1.349       .  A
N198        N199   1.328       .  A
N198       Mn224   2.242       .  S
N199        C204   1.362       .  A
N200        N201   1.318       .  A
N200       Mn202   2.178   1_455  S
N201        C203   1.352       .  A
Mn202      Cl226   2.477       .  S
C203       C1889   1.515       .  S
C204       C1861   1.503       .  S
N205        N206   1.333   1_655  A
N205        N211   1.320       .  A
N205       Mn213   2.267       .  S
N206        C214   1.367       .  A
N207        N209   1.317       .  A
N207        N208   1.308       .  A
N207       Mn225   2.148       .  S
N208        C215   1.337       .  A
N209        N210   1.329       .  A
N209       Mn213   2.258       .  S
N210        C215   1.367       .  A
N211        N212   1.317   1_655  A
N211       Mn225   2.195       .  S
N212        C214   1.343       .  A
Mn213      Cl226   2.614       .  S
C214       C1917   1.501       .  S
C215       C1948   1.506       .  S
N216        N217   1.320       .  A
N216        N222   1.309       .  A
N216       Mn224   2.180       .  S
N217        C227   1.354       .  A
N218        N219   1.318       .  A
N218        N220   1.315       .  A
N218       Mn225   2.148   1_455  S
N219        C228   1.341       .  A
N220        N221   1.318       .  A
N220       Mn224   2.234   1_455  S
N221        C228   1.362       .  A
N222        N223   1.316       .  A
N222       Mn225   2.187       .  S
N223        C227   1.354       .  A
Mn224      Cl226   2.583       .  S
Mn225      Cl226   2.484       .  S
C227       C1903   1.499       .  S
C228       C1875   1.482       .  S
N229        N230   1.322       .  A
N229        N235   1.311       .  A
N229       Mn258   2.212   1_556  S
N230        C237   1.360       .  A
N231        N233   1.312       .  A
N231        N232   1.326       .  A
N231       Mn247   2.196   1_554  S
N232        C238   1.353       .  A
N233        N234   1.312       .  A
N233       Mn258   2.179       .  S
N234        C238   1.351       .  A
N235        N236   1.313       .  A
N235       Mn247   2.161       .  S
N236        C237   1.348       .  A
C237       C1791   1.496       .  S
C238       C1766   1.481       .  S
N239        N245   1.316       .  A
N239        N240   1.333       .  A
N239       Mn269   2.278   1_554  S
N240        C248   1.369       .  A
N241        N242   1.318       .  A
N241        N243   1.322       .  A
N241       Mn247   2.212       .  S
N242        C249   1.347       .  A
N243        N244   1.332       .  A
N243       Mn269   2.258       .  S
N244        C249   1.364       .  A
N245        N246   1.309       .  A
N245       Mn247   2.138   1_554  S
N246        C248   1.335       .  A
Mn247      Cl271   2.485       .  S
C248       C1819   1.486       .  S
C249       C1847   1.505       .  S
N250        N251   1.323       .  A
N250        N256   1.308       .  A
N250       Mn258   2.219       .  S
N251        C259   1.362       .  A
N252        N254   1.312       .  A
N252        N253   1.320       .  A
N252       Mn270   2.197   1_556  S
N253        C260   1.353       .  A
N254        N255   1.320       .  A
N254       Mn258   2.198   1_556  S
N255        C260   1.357       .  A
N256        N257   1.316       .  A
N256       Mn270   2.154       .  S
N257        C259   1.348       .  A
Mn258      Cl271   2.578   1_554  S
C259       C1780   1.506       .  S
C260       C1749   1.503       .  S
N261        N262   1.339       .  A
N261        N267   1.318       .  A
N261       Mn269   2.311       .  S
N262        C272   1.378       .  A
N263        N264   1.313       .  A
N263        N265   1.319       .  A
N263       Mn270   2.175       .  S
N264        C273   1.344       .  A
N265        N266   1.326       .  A
N265       Mn269   2.240   1_554  S
N266        C273   1.361       .  A
N267        N268   1.306       .  A
N267       Mn270   2.127   1_556  S
N268        C272   1.330       .  A
Mn269      Cl271   2.610       .  S
Mn270      Cl271   2.489   1_554  S
C272       C1808   1.513       .  S
C273       C1833   1.487       .  S
N274        N275   1.312       .  A
N274        N280   1.312       .  A
N274       Mn303   2.160       .  S
N275        C282   1.348       .  A
N276        N278   1.313   1_545  A
N276        N277   1.323       .  A
N276       Mn292   2.231   1_545  S
N277        C283   1.359       .  A
N278        N279   1.320   1_565  A
N278       Mn303   2.175       .  S
N279        C283   1.349       .  A
N280        N281   1.320       .  A
N280       Mn292   2.198       .  S
N281        C282   1.355       .  A
C282       C1679   1.478       .  S
C283       C1651   1.492       .  S
N284        N290   1.320       .  A
N284        N285   1.329       .  A
N284       Mn314   2.242   1_545  S
N285        C293   1.360       .  A
N286        N287   1.320       .  A
N286        N288   1.324       .  A
N286       Mn292   2.228       .  S
N287        C294   1.351       .  A
N288        N289   1.328       .  A
N288       Mn314   2.238       .  S
N289        C294   1.357       .  A
N290        N291   1.311       .  A
N290       Mn292   2.167   1_545  S
N291        C293   1.341       .  A
Mn292      Cl316   2.503       .  S
C293       C1696   1.487       .  S
C294       C1735   1.499       .  S
N295        N296   1.312   1_565  A
N295        N301   1.310       .  A
N295       Mn303   2.152       .  S
N296        C304   1.346       .  A
N297        N299   1.311       .  A
N297        N298   1.313       .  A
N297       Mn315   2.147       .  S
N298        C305   1.345       .  A
N299        N300   1.315       .  A
N299       Mn303   2.184       .  S
N300        C305   1.354       .  A
N301        N302   1.319   1_565  A
N301       Mn315   2.179       .  S
N302        C304   1.352       .  A
Mn303      Cl316   2.572       .  S
C304       C1665   1.468       .  S
C305       C1637   1.466       .  S
N306        N307   1.332       .  A
N306        N312   1.319       .  A
N306       Mn314   2.270       .  S
N307        C317   1.366       .  A
N308        N309   1.307   1_565  A
N308        N310   1.314       .  A
N308       Mn315   2.140       .  S
N309        C318   1.339       .  A
N310        N311   1.325   1_565  A
N310       Mn314   2.229       .  S
N311        C318   1.363       .  A
N312        N313   1.316       .  A
N312       Mn315   2.174       .  S
N313        C317   1.342       .  A
Mn314      Cl316   2.588       .  S
Mn315      Cl316   2.500       .  S
C317       C1707   1.499       .  S
C318       C1721   1.489       .  S
C319        C320   1.408       .  D
C319       C1623   1.532       .  S
C319       C2690   1.523       .  S
C320       C1738   1.566       .  S
C320       C2522   1.561       .  S
C321        C322   1.400       .  D
C321       C1612   1.552       .  S
C321       C1724   1.498       .  S
C322       C1805   1.596       .  S
C322       C2606   1.562       .  S
C323        C324   1.407       .  D
C323       C1567   1.542       .  S
C323       C1710   1.542       .  S
C324       C1581   1.553       .  S
C324       C1595   1.518       .  S
N325        N326   1.327       .  A
N325        N331   1.317       .  A
N325       Mn354   2.235       .  S
N326        C333   1.363       .  A
N327        N329   1.316       .  A
N327        N328   1.312       .  A
N327       Mn343   2.169   1_554  S
N328        C334   1.343       .  A
N329        N330   1.335       .  A
N329       Mn354   2.267   1_554  S
N330        C334   1.370       .  A
N331        N332   1.314       .  A
N331       Mn343   2.200       .  S
N332        C333   1.351       .  A
C333       C1626   1.481       .  S
C334       C1553   1.513       .  S
N335        N341   1.314       .  A
N335        N336   1.315       .  A
N335       Mn365   2.189       .  S
N336        C344   1.350       .  A
N337        N338   1.317       .  A
N337        N339   1.310       .  A
N337       Mn343   2.171       .  S
N338        C345   1.350       .  A
N339        N340   1.315       .  A
N339       Mn365   2.163   1_556  S
N340        C345   1.349       .  A
N341        N342   1.324       .  A
N341       Mn343   2.205   1_554  S
N342        C344   1.355       .  A
Mn343      Cl367   2.492       .  S
C344       C1497   1.484       .  S
C345       C1511   1.469       .  S
N346        N347   1.328       .  A
N346        N352   1.320       .  A
N346       Mn354   2.241   1_554  S
N347        C355   1.363       .  A
N348        N350   1.318       .  A
N348        N349   1.313       .  A
N348       Mn366   2.174       .  S
N349        C356   1.345       .  A
N350        N351   1.328       .  A
N350       Mn354   2.243       .  S
N351        C356   1.361       .  A
N352        N353   1.312       .  A
N352       Mn366   2.191   1_554  S
N353        C355   1.344       .  A
Mn354      Cl367   2.593       .  S
C355       C1539   1.488       .  S
C356       C1598   1.493       .  S
N357        N358   1.321       .  A
N357        N363   1.311       .  A
N357       Mn365   2.186   1_556  S
N358        C368   1.354       .  A
N359        N360   1.320       .  A
N359        N361   1.309       .  A
N359       Mn366   2.183   1_554  S
N360        C369   1.353       .  A
N361        N362   1.316       .  A
N361       Mn365   2.184       .  S
N362        C369   1.354       .  A
N363        N364   1.320       .  A
N363       Mn366   2.216       .  S
N364        C368   1.359       .  A
Mn365      Cl367   2.584   1_554  S
Mn366      Cl367   2.492       .  S
C368       C1525   1.512       .  S
C369       C1486   1.494       .  S
C370        C371   1.402       .  D
C370       C1472   1.537       .  S
C370       C3037   1.563       .  S
C371       C1556   1.538       .  S
C371       C2676   1.526       .  S
C372        C373   1.423       .  D
C372       C1850   1.538       .  S
C372       C3194   1.576       .  S
C373       C1693   1.528       .  S
C373       C2505   1.543       .  S
C374        C375   1.422       .  D
C374       C1455   1.523       .  S
C374       C2382   1.547       .  S
C375       C1441   1.571       .  S
C375       C1542   1.523       .  S
N376        N377   1.332       .  A
N376        N382   1.321       .  A
N376       Mn405   2.263       .  S
N377        C384   1.364       .  A
N378        N380   1.320       .  A
N378        N379   1.313   1_565  A
N378       Mn394   2.177       .  S
N379        C385   1.343       .  A
N380        N381   1.330   1_565  A
N380       Mn405   2.255       .  S
N381        C385   1.365       .  A
N382        N383   1.317       .  A
N382       Mn394   2.194       .  S
N383        C384   1.345       .  A
C384       C1469   1.497       .  S
C385       C1430   1.516       .  S
N386        N392   1.315       .  A
N386        N387   1.325   1_565  A
N386       Mn416   2.219       .  S
N387        C395   1.358       .  A
N388        N389   1.319       .  A
N388        N390   1.310       .  A
N388       Mn394   2.179       .  S
N389        C396   1.353       .  A
N390        N391   1.313       .  A
N390       Mn416   2.175       .  S
N391        C396   1.351       .  A
N392        N393   1.320   1_565  A
N392       Mn394   2.205       .  S
N393        C395   1.353       .  A
Mn394      Cl418   2.501       .  S
C395       C1385   1.506       .  S
C396       C1357   1.501       .  S
N397        N398   1.332   1_565  A
N397        N403   1.320       .  A
N397       Mn405   2.274       .  S
N398        C406   1.368       .  A
N399        N401   1.318       .  A
N399        N400   1.308       .  A
N399       Mn417   2.156       .  S
N400        C407   1.338       .  A
N401        N402   1.329       .  A
N401       Mn405   2.247       .  S
N402        C407   1.364       .  A
N403        N404   1.314   1_565  A
N403       Mn417   2.177       .  S
N404        C406   1.342       .  A
Mn405      Cl418   2.593       .  S
C406       C1413   1.502       .  S
C407       C1458   1.477       .  S
N408        N409   1.326       .  A
N408        N414   1.312       .  A
N408       Mn416   2.223       .  S
N409        C419   1.358       .  A
N410        N411   1.317   1_565  A
N410        N412   1.308       .  A
N410       Mn417   2.176       .  S
N411        C420   1.352       .  A
N412        N413   1.318   1_565  A
N412       Mn416   2.191       .  S
N413        C420   1.357       .  A
N414        N415   1.321       .  A
N414       Mn417   2.192       .  S
N415        C419   1.350       .  A
Mn416      Cl418   2.585       .  S
Mn417      Cl418   2.498       .  S
C419       C1399   1.490       .  S
C420       C1371   1.498       .  S
N421        N422   1.324       .  A
N421        N427   1.313       .  A
N421       Mn450   2.213       .  S
N422        C429   1.359       .  A
N423        N425   1.310       .  A
N423        N424   1.317   1_565  A
N423       Mn439   2.175       .  S
N424        C430   1.352       .  A
N425        N426   1.322   1_565  A
N425       Mn450   2.209       .  S
N426        C430   1.359       .  A
N427        N428   1.312       .  A
N427       Mn439   2.155       .  S
N428        C429   1.341       .  A
C429       C1287   1.470       .  S
C430       C1262   1.506       .  S
N431        N437   1.318       .  A
N431        N432   1.327   1_565  A
N431       Mn461   2.245       .  S
N432        C440   1.362       .  A
N433        N434   1.314       .  A
N433        N435   1.317       .  A
N433       Mn439   2.170       .  S
N434        C441   1.340       .  A
N435        N436   1.332       .  A
N435       Mn461   2.262       .  S
N436        C441   1.366       .  A
N437        N438   1.314   1_565  A
N437       Mn439   2.176       .  S
N438        C440   1.344       .  A
Mn439      Cl463   2.483       .  S
C440       C1304   1.494       .  S
C441       C1343   1.493       .  S
N442        N443   1.318   1_565  A
N442        N448   1.315       .  A
N442       Mn450   2.195       .  S
N443        C451   1.353       .  A
N444        N446   1.312       .  A
N444        N445   1.322       .  A
N444       Mn462   2.191       .  S
N445        C452   1.352       .  A
N446        N447   1.319       .  A
N446       Mn450   2.202       .  S
N447        C452   1.356       .  A
N448        N449   1.317   1_565  A
N448       Mn462   2.180       .  S
N449        C451   1.348       .  A
Mn450      Cl463   2.584       .  S
C451       C1273   1.469       .  S
C452       C1248   1.482       .  S
N453        N454   1.331       .  A
N453        N459   1.320       .  A
N453       Mn461   2.265       .  S
N454        C464   1.366       .  A
N455        N456   1.315   1_565  A
N455        N457   1.318       .  A
N455       Mn462   2.196       .  S
N456        C465   1.348       .  A
N457        N458   1.329   1_565  A
N457       Mn461   2.239       .  S
N458        C465   1.362       .  A
N459        N460   1.311       .  A
N459       Mn462   2.168       .  S
N460        C464   1.340       .  A
Mn461      Cl463   2.608       .  S
Mn462      Cl463   2.494       .  S
C464       C1315   1.486       .  S
C465       C1329   1.497       .  S
N466        N467   1.315       .  A
N466        N472   1.307       .  A
N466       Mn495   2.178   1_455  S
N467        C474   1.355       .  A
N468        N470   1.312       .  A
N468        N469   1.311       .  A
N468       Mn484   2.161       .  S
N469        C475   1.346       .  A
N470        N471   1.331       .  A
N470       Mn495   2.254       .  S
N471        C475   1.368       .  A
N472        N473   1.322       .  A
N472       Mn484   2.184   1_455  S
N473        C474   1.353       .  A
C474       C1175   1.498       .  S
C475       C1133   1.516       .  S
N476        N482   1.322       .  A
N476        N477   1.336       .  A
N476       Mn506   2.260       .  S
N477        C485   1.366       .  A
N478        N479   1.300   1_655  A
N478        N480   1.319       .  A
N478       Mn484   2.123       .  S
N479        C486   1.327       .  A
N480        N481   1.335   1_655  A
N480       Mn506   2.280       .  S
N481        C486   1.372       .  A
N482        N483   1.315       .  A
N482       Mn484   2.199       .  S
N483        C485   1.343       .  A
Mn484      Cl508   2.461       .  S
C485       C1189   1.533       .  S
C486       C1231   1.495       .  S
N487        N488   1.316       .  A
N487        N493   1.308       .  A
N487       Mn495   2.176       .  S
N488        C496   1.353       .  A
N489        N491   1.312       .  A
N489        N490   1.314       .  A
N489       Mn507   2.141   1_455  S
N490        C497   1.339       .  A
N491        N492   1.331       .  A
N491       Mn495   2.259   1_455  S
N492        C497   1.367       .  A
N493        N494   1.322       .  A
N493       Mn507   2.180       .  S
N494        C496   1.352       .  A
Mn495      Cl508   2.592       .  S
C496       C1164   1.490       .  S
C497       C1147   1.484       .  S
N498        N499   1.335   1_655  A
N498        N504   1.318       .  A
N498       Mn506   2.267       .  S
N499        C509   1.367       .  A
N500        N501   1.304       .  A
N500        N502   1.319       .  A
N500       Mn507   2.117       .  S
N501        C510   1.327       .  A
N502        N503   1.335       .  A
N502       Mn506   2.299       .  S
N503        C510   1.376       .  A
N504        N505   1.310   1_655  A
N504       Mn507   2.155       .  S
N505        C509   1.337       .  A
Mn506      Cl508   2.631       .  S
Mn507      Cl508   2.463       .  S
C509       C1203   1.499       .  S
C510       C1217   1.502       .  S
C511        C512   1.404       .  D
C511       C1119   1.530       .  S
C511       C2410   1.559       .  S
C512       C1192   1.554       .  S
C512       C3110   1.529       .  S
N513        N514   1.312   1_565  A
N513        N519   1.311       .  A
N513       Mn542   2.169       .  S
N514        C521   1.351       .  A
N515        N517   1.314       .  A
N515        N516   1.319       .  A
N515       Mn531   2.202       .  S
N516        C522   1.354       .  A
N517        N518   1.320       .  A
N517       Mn542   2.185       .  S
N518        C522   1.351       .  A
N519        N520   1.320   1_565  A
N519       Mn531   2.189       .  S
N520        C521   1.355       .  A
C521       C1049   1.490       .  S
C522       C1021   1.486       .  S
N523        N529   1.317       .  A
N523        N524   1.327       .  A
N523       Mn553   2.239       .  S
N524        C532   1.364       .  A
N525        N526   1.319   1_565  A
N525        N527   1.322       .  A
N525       Mn531   2.203       .  S
N526        C533   1.348       .  A
N527        N528   1.329   1_565  A
N527       Mn553   2.254       .  S
N528        C533   1.361       .  A
N529        N530   1.310       .  A
N529       Mn531   2.168       .  S
N530        C532   1.343       .  A
Mn531      Cl555   2.500       .  S
C532       C1077   1.497       .  S
C533       C1122   1.496       .  S
N534        N535   1.314       .  A
N534        N540   1.310       .  A
N534       Mn542   2.168       .  S
N535        C543   1.349       .  A
N536        N538   1.312   1_565  A
N536        N537   1.321   1_565  A
N536       Mn554   2.198       .  S
N537        C544   1.353       .  A
N538        N539   1.321       .  A
N538       Mn542   2.201   1_545  S
N539        C544   1.357       .  A
N540        N541   1.319       .  A
N540       Mn554   2.174       .  S
N541        C543   1.352       .  A
Mn542      Cl555   2.573       .  S
C543       C1063   1.477       .  S
C544       C1035   1.497       .  S
N545        N546   1.332   1_565  A
N545        N551   1.316       .  A
N545       Mn553   2.239       .  S
N546        C556   1.366       .  A
N547        N548   1.314       .  A
N547        N549   1.320       .  A
N547       Mn554   2.189       .  S
N548        C557   1.345       .  A
N549        N550   1.331       .  A
N549       Mn553   2.246       .  S
N550        C557   1.361       .  A
N551        N552   1.302   1_565  A
N551       Mn554   2.145       .  S
N552        C556   1.337       .  A
Mn553      Cl555   2.600       .  S
Mn554      Cl555   2.486       .  S
C556       C1091   1.492       .  S
C557       C1105   1.492       .  S
C558        C559   1.404       .  D
C558        C993   1.544       .  S
C558       C1108   1.550       .  S
C559        C979   1.564       .  S
C559       C1007   1.568       .  S
N560        N561   1.327       .  A
N560        N566   1.318       .  A
N560       Mn589   2.213       .  S
N561        C568   1.358       .  A
N562        N564   1.319       .  A
N562        N563   1.307   1_655  A
N562       Mn578   2.167       .  S
N563        C569   1.340       .  A
N564        N565   1.334   1_655  A
N564       Mn589   2.243       .  S
N565        C569   1.364       .  A
N566        N567   1.310       .  A
N566       Mn578   2.208       .  S
N567        C568   1.344       .  A
C568       C1010   1.494       .  S
C569        C954   1.496       .  S
N570        N576   1.309       .  A
N570        N571   1.311   1_655  A
N570       Mn600   2.161       .  S
N571        C579   1.346       .  A
N572        N573   1.319       .  A
N572        N574   1.310       .  A
N572       Mn578   2.173       .  S
N573        C580   1.348       .  A
N574        N575   1.319       .  A
N574       Mn600   2.196       .  S
N575        C580   1.356       .  A
N576        N577   1.331   1_655  A
N576       Mn578   2.237       .  S
N577        C579   1.367       .  A
Mn578      Cl602   2.479       .  S
C579        C912   1.514       .  S
C580        C895   1.483       .  S
N581        N582   1.325   1_655  A
N581        N587   1.315       .  A
N581       Mn589   2.227       .  S
N582        C590   1.363       .  A
N583        N585   1.321       .  A
N583        N584   1.316       .  A
N583       Mn601   2.181       .  S
N584        C591   1.344       .  A
N585        N586   1.328       .  A
N585       Mn589   2.253       .  S
N586        C591   1.360       .  A
N587        N588   1.310   1_655  A
N587       Mn601   2.161       .  S
N588        C590   1.342       .  A
Mn589      Cl602   2.601       .  S
C590        C937   1.498       .  S
C591        C965   1.486       .  S
N592        N593   1.312       .  A
N592        N598   1.310       .  A
N592       Mn600   2.142       .  S
N593        C603   1.346       .  A
N594        N595   1.315   1_655  A
N594        N596   1.313       .  A
N594       Mn601   2.155       .  S
N595        C604   1.345       .  A
N596        N597   1.316   1_655  A
N596       Mn600   2.192       .  S
N597        C604   1.354       .  A
N598        N599   1.315       .  A
N598       Mn601   2.181       .  S
N599        C603   1.354       .  A
Mn600      Cl602   2.563       .  S
Mn601      Cl602   2.498       .  S
C603        C923   1.470       .  S
C604        C881   1.467       .  S
C605        C606   1.407       .  D
C605       C1080   1.518       .  S
C605       C2396   1.560       .  S
C606        C968   1.535       .  S
C606       C2466   1.537       .  S
C607        C608   1.394       .  D
C607       C1318   1.529       .  S
C607       C2480   1.542       .  S
C608        C870   1.521       .  S
C608        C951   1.538       .  S
C609        C610   1.417       .  D
C609       C1220   1.568       .  S
C609       C2550   1.587       .  S
C610        C853   1.540       .  S
C610       C1094   1.517       .  S
C611        C612   1.399       .  D
C611       C1346   1.538       .  S
C611       C3082   1.536       .  S
C612        C940   1.522       .  S
C612       C2452   1.550       .  S
C613        C614   1.403       .  D
C613       C1234   1.552       .  S
C613       C3124   1.558       .  S
C614       C1301   1.512       .  S
C614       C3054   1.534       .  S
C615        C616   1.415       .  D
C615       C1206   1.540       .  S
C615       C2533   1.524       .  S
C616       C1332   1.525       .  S
C616       C2491   1.586       .  S
C617        C618   1.394       .  D
C617        C839   1.512       .  S
C617       C1682   1.527       .  S
C618       C1245   1.546       .  S
C618       C2953   1.528       .  S
C619        C620   1.397       .  D
C619       C1150   1.589       .  S
C619       C3320   1.550       .  S
C620       C2032   1.479       .  S
C620       C2718   1.535       .  S
C621        C622   1.400       .  D
C621       C1136   1.520       .  S
C621       C3012   1.559       .  S
C622       C1906   1.517       .  S
C622       C2858   1.500       .  S
C623        C624   1.412       .  D
C623       C1259   1.518       .  S
C623       C3334   1.568       .  S
C624       C1388   1.538       .  S
C624       C3233   1.528       .  S
C625        C626   1.396       .  D
C625       C1290   1.547       .  S
C625       C2970   1.545       .  S
C626       C1360   1.507       .  S
C626       C2900   1.512       .  S
C627        C628   1.377       .  D
C627       C1178   1.521       .  S
C627       C3362   1.531       .  S
C628       C1878   1.522       .  S
C628       C3264   1.495       .  S
C629        C630   1.380       .  D
C629       C1276   1.518       .  S
C629       C3348   1.514       .  S
C630       C1654   1.526       .  S
C630       C2760   1.507       .  S
C631        C632   1.405       .  D
C631       C1161   1.519       .  S
C631       C3026   1.553       .  S
C632        C825   1.526       .  S
C632       C2004   1.514       .  S
C633        C634   1.387       .  D
C633       C1822   1.531       .  S
C633       C3166   1.546       .  S
C634       C1427   1.536       .  S
C634       C3068   1.512       .  S
C635        C636   1.410       .  D
C635       C1836   1.525       .  S
C635       C2592   1.554       .  S
C636       C1416   1.535       .  S
C636       C2368   1.538       .  S
C637        C638   1.399       .  D
C637       C1794   1.507       .  S
C637       C2802   1.556       .  S
C638       C2253   1.527       .  S
C638       C2732   1.504       .  S
C639        C640   1.419       .  D
C639       C1752   1.526       .  S
C639       C2788   1.534       .  S
C640        C811   1.565       .  S
C640       C2183   1.514       .  S
C641        C642   1.402       .  D
C641        C797   1.533       .  S
C641       C1024   1.523       .  S
C642       C1402   1.561       .  S
C642       C2914   1.532       .  S
C643        C644   1.429       .  D
C643       C1374   1.527       .  S
C643       C3208   1.561       .  S
C644       C1052   1.509       .  S
C644       C2998   1.559       .  S
C645        C646   1.376       .  D
C645        C783   1.490       .  S
C645       C1528   1.529       .  S
C646        C769   1.536       .  S
C646       C2169   1.515       .  S
C647        C648   1.397       .  D
C647       C1934   1.549       .  S
C647       C2438   1.513       .  S
C648       C2323   1.520       .  S
C648       C2645   1.567       .  S
C649        C650   1.399       .  D
C649       C2340   1.537       .  S
C649       C3180   1.520       .  S
C650       C1920   1.535       .  S
C650       C3096   1.561       .  S
C651        C652   1.378       .  D
C651       C2295   1.520       .  S
C651       C2746   1.518       .  S
C652        C755   1.507       .  S
C652       C1514   1.506       .  S
C653        C654   1.397       .  D
C653       C1892   1.527       .  S
C653       C3289   1.516       .  S
C654        C884   1.502       .  S
C654       C2928   1.544       .  S
C655        C656   1.387       .  D
C655        C741   1.497       .  S
C655        C926   1.506       .  S
C656       C1864   1.537       .  S
C656       C2844   1.531       .  S
C657        C658   1.410       .  D
C657        C713   1.554       .  S
C657        C898   1.510       .  S
C658        C727   1.525       .  S
C658       C2046   1.558       .  S
C659        C660   1.388       .  D
C659       C1038   1.530       .  S
C659       C2981   1.503       .  S
C660       C1668   1.496       .  S
C660       C2771   1.536       .  S
C661        C662   1.390       .  D
C661        C685   1.523       .  S
C661       C1640   1.505       .  S
C662        C699   1.513       .  S
C662       C1066   1.509       .  S
C663        C664   1.386       .  D
C663        C909   1.533       .  S
C663       C2942   1.528       .  S
C664       C2018   1.523       .  S
C664       C2704   1.524       .  S
C665        C666   1.393       .  D
C665       C1962   1.526       .  S
C665       C1990   1.528       .  S
C666        C867   1.538       .  S
C666        C982   1.506       .  S
C667        C668   1.424       .  D
C667       C1570   1.523       .  S
C667       C1609   1.558       .  S
C668        C856   1.564       .  S
C668        C996   1.603       .  S
C669        C670   1.409       .  D
C669       C1976   1.536   1_554  S
C669       C2102   1.547       .  S
C670       C1444   1.539       .  S
C670       C1584   1.567   1_554  S
C671        C672   1.380       .  D
C671        C688   1.499       .  S
C671        C842   1.510       .  S
C672        C758   1.526       .  S
C672        C786   1.517       .  S
C673        C674   1.398       .  D
C673        C772   1.526       .  S
C673        C814   1.547       .  S
C674        C730   1.532       .  S
C674        C828   1.540       .  S
C675        C676   1.405       .  D
C675        C702   1.516       .  S
C675        C800   1.565       .  S
C676        C716   1.539       .  S
C676        C744   1.526       .  S
C677        C678   1.401       .  D
C677       C1777   1.532       .  S
C677       C3250   1.527       .  S
C678       C2144   1.509       .  S
C678       C2816   1.549       .  S
C679        C680   1.394       .  D
C679       C1483   1.525       .  S
C679       C2869   1.546       .  S
C680       C2155   1.510       .  S
C680       C2830   1.511       .  S
C681        C682   1.392       .  D
C681       C2270   1.527       .  S
C681       C3278   1.531       .  S
C682       C1500   1.524       .  S
C682       C2886   1.527       .  S
C683        C684   1.397       .  D
C683       C2284   1.499       .  S
C683       C3306   1.530       .  S
C684       C1763   1.549       .  S
C684       C3219   1.534       .  S
C685        C686   1.425       .  A
C685        C690   1.422       .  A
C686        C687   1.417       .  A
C686        C691   1.441       .  S
C687        C688   1.413       .  A
C687        C694   1.443       .  S
C688        C689   1.400       .  A
C689        C690   1.393       .  A
C689        C692   1.450       .  S
C690        C693   1.449       .  S
C691        N698   1.156       .  T
C692        N697   1.157       .  T
C693        N695   1.158       .  T
C694        N696   1.157       .  T
C699        C700   1.417       .  A
C699        C704   1.425       .  A
C700        C701   1.410       .  A
C700        C705   1.446       .  S
C701        C702   1.419       .  A
C701        C708   1.438       .  S
C702        C703   1.402       .  A
C703        C704   1.390       .  A
C703        C706   1.437       .  S
C704        C707   1.451       .  S
C705        N712   1.158       .  T
C706        N711   1.151       .  T
C707        N709   1.157       .  T
C708        N710   1.157       .  T
C713        C714   1.421       .  A
C713        C718   1.399       .  A
C714        C715   1.422       .  A
C714        C719   1.451       .  S
C715        C716   1.422       .  A
C715        C722   1.444       .  S
C716        C717   1.429       .  A
C717        C718   1.417       .  A
C717        C720   1.442       .  S
C718        C721   1.447       .  S
C719        N726   1.157       .  T
C720        N725   1.158       .  T
C721        N723   1.157       .  T
C722        N724   1.156       .  T
C727        C728   1.424       .  A
C727        C732   1.416       .  A
C728        C729   1.419       .  A
C728        C733   1.448       .  S
C729        C730   1.417       .  A
C729        C736   1.449       .  S
C730        C731   1.413       .  A
C731        C732   1.415       .  A
C731        C734   1.441       .  S
C732        C735   1.442       .  S
C733        N740   1.156       .  T
C734        N739   1.157       .  T
C735        N737   1.155       .  T
C736        N738   1.157       .  T
C741        C742   1.413       .  A
C741        C746   1.398       .  A
C742        C743   1.423       .  A
C742        C747   1.448       .  S
C743        C744   1.425       .  A
C743        C750   1.442       .  S
C744        C745   1.419       .  A
C745        C746   1.404       .  A
C745        C748   1.437       .  S
C746        C749   1.450       .  S
C747        N754   1.157       .  T
C748        N753   1.154       .  T
C749        N751   1.157       .  T
C750        N752   1.157       .  T
C755        C756   1.406       .  A
C755        C760   1.420       .  A
C756        C757   1.379       .  A
C756        C761   1.447       .  S
C757        C758   1.418       .  A
C757        C764   1.449       .  S
C758        C759   1.431       .  A
C759        C760   1.424       .  A
C759        C762   1.445       .  S
C760        C763   1.446       .  S
C761        N768   1.156       .  T
C762        N767   1.157       .  T
C763        N765   1.158       .  T
C764        N766   1.157       .  T
C769        C770   1.413       .  A
C769        C774   1.402       .  A
C770        C771   1.412       .  A
C770        C775   1.447       .  S
C771        C772   1.414       .  A
C771        C778   1.447       .  S
C772        C773   1.435       .  A
C773        C774   1.410       .  A
C773        C776   1.443       .  S
C774        C777   1.452       .  S
C775        N782   1.158       .  T
C776        N781   1.159       .  T
C777        N779   1.157       .  T
C778        N780   1.157       .  T
C783        C784   1.417       .  A
C783        C788   1.393       .  A
C784        C785   1.415       .  A
C784        C789   1.445       .  S
C785        C786   1.419       .  A
C785        C792   1.451       .  S
C786        C787   1.424       .  A
C787        C788   1.389       .  A
C787        C790   1.442       .  S
C788        C791   1.445       .  S
C789        N796   1.157       .  T
C790        N795   1.158       .  T
C791        N793   1.158       .  T
C792        N794   1.157       .  T
C797        C798   1.418       .  A
C797        C802   1.423       .  A
C798        C799   1.418       .  A
C798        C803   1.447       .  S
C799        C800   1.407       .  A
C799        C806   1.439       .  S
C800        C801   1.421       .  A
C801        C802   1.430       .  A
C801        C804   1.445       .  S
C802        C805   1.444       .  S
C803        N810   1.158       .  T
C804        N809   1.157       .  T
C805        N807   1.157       .  T
C806        N808   1.155       .  T
C811        C812   1.420       .  A
C811        C816   1.416       .  A
C812        C813   1.450       .  A
C812        C817   1.443       .  S
C813        C814   1.438       .  A
C813        C820   1.443       .  S
C814        C815   1.412       .  A
C815        C816   1.388       .  A
C815        C818   1.438       .  S
C816        C819   1.452       .  S
C817        N824   1.157       .  T
C818        N823   1.156       .  T
C819        N821   1.158       .  T
C820        N822   1.157       .  T
C825        C826   1.419       .  A
C825        C830   1.413       .  A
C826        C827   1.411       .  A
C826        C831   1.447       .  S
C827        C828   1.416       .  A
C827        C834   1.447       .  S
C828        C829   1.434       .  A
C829        C830   1.425       .  A
C829        C832   1.442       .  S
C830        C833   1.451       .  S
C831        N838   1.157       .  T
C832        N837   1.157       .  T
C833        N835   1.158       .  T
C834        N836   1.157       .  T
C839        C840   1.415       .  A
C839        C844   1.417       .  A
C840        C841   1.412       .  A
C840        C845   1.447       .  S
C841        C842   1.414       .  A
C841        C848   1.446       .  S
C842        C843   1.413       .  A
C843        C844   1.404       .  A
C843        C846   1.448       .  S
C844        C847   1.441       .  S
C845        N852   1.157       .  T
C846        N851   1.157       .  T
C847        N849   1.157       .  T
C848        N850   1.157       .  T
C853        C854   1.437       .  A
C853        C858   1.432       .  A
C854        C855   1.442       .  A
C854        C859   1.451       .  S
C855        C856   1.416   1_545  A
C855        C862   1.440       .  S
C856        C857   1.386       .  A
C857        C858   1.397   1_565  A
C857        C860   1.441       .  S
C858        C861   1.433   1_545  S
C859        N866   1.157       .  T
C860        N865   1.157       .  T
C861        N863   1.154       .  T
C862        N864   1.155       .  T
C867        C868   1.422       .  A
C867        C872   1.416   1_655  A
C868        C869   1.406   1_655  A
C868        C873   1.443       .  S
C869        C870   1.414       .  A
C869        C876   1.445   1_455  S
C870        C871   1.415       .  A
C871        C872   1.422       .  A
C871        C874   1.444       .  S
C872        C875   1.440       .  S
C873        N880   1.157       .  T
C874        N879   1.157       .  T
C875        N877   1.157       .  T
C876        N878   1.158       .  T
C881        C882   1.415       .  A
C881        C886   1.402       .  A
C882        C883   1.407       .  A
C882        C887   1.450       .  S
C883        C884   1.416       .  A
C883        C890   1.453       .  S
C884        C885   1.419       .  A
C885        C886   1.393       .  A
C885        C888   1.446       .  S
C886        C889   1.453       .  S
C887        N894   1.157       .  T
C888        N893   1.157       .  T
C889        N891   1.157       .  T
C890        N892   1.157       .  T
C895        C896   1.406       .  A
C895        C900   1.413       .  A
C896        C897   1.402       .  A
C896        C901   1.448       .  S
C897        C898   1.413       .  A
C897        C904   1.439       .  S
C898        C899   1.414       .  A
C899        C900   1.414       .  A
C899        C902   1.446       .  S
C900        C903   1.450       .  S
C901        N908   1.155       .  T
C902        N907   1.157       .  T
C903        N905   1.157       .  T
C904        N906   1.151       .  T
C909        C910   1.406       .  A
C909        C914   1.428       .  A
C910        C911   1.407       .  A
C910        C915   1.437       .  S
C911        C912   1.420       .  A
C911        C918   1.452       .  S
C912        C913   1.415       .  A
C913        C914   1.426       .  A
C913        C916   1.451       .  S
C914        C917   1.445       .  S
C915        N922   1.152       .  T
C916        N921   1.158       .  T
C917        N919   1.157       .  T
C918        N920   1.157       .  T
C923        C924   1.403       .  A
C923        C928   1.408       .  A
C924        C925   1.400       .  A
C924        C929   1.454       .  S
C925        C926   1.424       .  A
C925        C932   1.446       .  S
C926        C927   1.420       .  A
C927        C928   1.407       .  A
C927        C930   1.449       .  S
C928        C931   1.453       .  S
C929        N936   1.156       .  T
C930        N935   1.157       .  T
C931        N933   1.157       .  T
C932        N934   1.158       .  T
C937        C938   1.414       .  A
C937        C942   1.426       .  A
C938        C939   1.410       .  A
C938        C943   1.453       .  S
C939        C940   1.427       .  A
C939        C946   1.452       .  S
C940        C941   1.408       .  A
C941        C942   1.406       .  A
C941        C944   1.454       .  S
C942        C945   1.452       .  S
C943        N950   1.158       .  T
C944        N949   1.157       .  T
C945        N947   1.158       .  T
C946        N948   1.158       .  T
C951        C952   1.424       .  A
C951        C956   1.432       .  A
C952        C953   1.405       .  A
C952        C957   1.443       .  S
C953        C954   1.404       .  A
C953        C960   1.457       .  S
C954        C955   1.410       .  A
C955        C956   1.427       .  A
C955        C958   1.448       .  S
C956        C959   1.447       .  S
C957        N964   1.157       .  T
C958        N963   1.157   1_455  T
C959        N961   1.157       .  T
C960        N962   1.157       .  T
C965        C966   1.407       .  A
C965        C970   1.410       .  A
C966        C967   1.413       .  A
C966        C971   1.450       .  S
C967        C968   1.424       .  A
C967        C974   1.447       .  S
C968        C969   1.415       .  A
C969        C970   1.414       .  A
C969        C972   1.443       .  S
C970        C973   1.450       .  S
C971        N978   1.157       .  T
C972        N977   1.155       .  T
C973        N975   1.157       .  T
C974        N976   1.158       .  T
C979        C980   1.444       .  A
C979        C984   1.427       .  A
C980        C981   1.428       .  A
C980        C985   1.436       .  S
C981        C982   1.404       .  A
C981        C988   1.451       .  S
C982        C983   1.395       .  A
C983        C984   1.403       .  A
C983        C986   1.452       .  S
C984        C987   1.440       .  S
C985        N992   1.157       .  T
C986        N991   1.157       .  T
C987        N989   1.156       .  T
C988        N990   1.157       .  T
C993        C994   1.417       .  A
C993        C998   1.419       .  A
C994        C995   1.435       .  A
C994        C999   1.447       .  S
C995        C996   1.431       .  A
C995       C1002   1.445       .  S
C996        C997   1.427       .  A
C997        C998   1.431       .  A
C997       C1000   1.451       .  S
C998       C1001   1.449       .  S
C999       N1006   1.157       .  T
C1000      N1005   1.157       .  T
C1001      N1003   1.157       .  T
C1002      N1004   1.157       .  T
C1007      C1008   1.404       .  A
C1007      C1012   1.425       .  A
C1008      C1009   1.396       .  A
C1008      C1013   1.434       .  S
C1009      C1010   1.418       .  A
C1009      C1016   1.456       .  S
C1010      C1011   1.413       .  A
C1011      C1012   1.427       .  A
C1011      C1014   1.448       .  S
C1012      C1015   1.439       .  S
C1013      N1020   1.152       .  T
C1014      N1019   1.157       .  T
C1015      N1017   1.154       .  T
C1016      N1018   1.158       .  T
C1021      C1022   1.404       .  A
C1021      C1026   1.405       .  A
C1022      C1023   1.411       .  A
C1022      C1027   1.455       .  S
C1023      C1024   1.428       .  A
C1023      C1030   1.445       .  S
C1024      C1025   1.424       .  A
C1025      C1026   1.413       .  A
C1025      C1028   1.443       .  S
C1026      C1029   1.452       .  S
C1027      N1034   1.157       .  T
C1028      N1033   1.157       .  T
C1029      N1031   1.157       .  T
C1030      N1032   1.157       .  T
C1035      C1036   1.413       .  A
C1035      C1040   1.410       .  A
C1036      C1037   1.415       .  A
C1036      C1041   1.451       .  S
C1037      C1038   1.423       .  A
C1037      C1044   1.448       .  S
C1038      C1039   1.419       .  A
C1039      C1040   1.409       .  A
C1039      C1042   1.449       .  S
C1040      C1043   1.445       .  S
C1041      N1048   1.157       .  T
C1042      N1047   1.157       .  T
C1043      N1045   1.154       .  T
C1044      N1046   1.157       .  T
C1049      C1050   1.419       .  A
C1049      C1054   1.419       .  A
C1050      C1051   1.408       .  A
C1050      C1055   1.451       .  S
C1051      C1052   1.416       .  A
C1051      C1058   1.454       .  S
C1052      C1053   1.407       .  A
C1053      C1054   1.402       .  A
C1053      C1056   1.451       .  S
C1054      C1057   1.452       .  S
C1055      N1062   1.158       .  T
C1056      N1061   1.157       .  T
C1057      N1059   1.157       .  T
C1058      N1060   1.157       .  T
C1063      C1064   1.417       .  A
C1063      C1068   1.412       .  A
C1064      C1065   1.408       .  A
C1064      C1069   1.451       .  S
C1065      C1066   1.412       .  A
C1065      C1072   1.453       .  S
C1066      C1067   1.417       .  A
C1067      C1068   1.399       .  A
C1067      C1070   1.453       .  S
C1068      C1071   1.453       .  S
C1069      N1076   1.157       .  T
C1070      N1075   1.157       .  T
C1071      N1073   1.157       .  T
C1072      N1074   1.157       .  T
C1077      C1078   1.411       .  A
C1077      C1082   1.423       .  A
C1078      C1079   1.409       .  A
C1078      C1083   1.450       .  S
C1079      C1080   1.423       .  A
C1079      C1086   1.449       .  S
C1080      C1081   1.409       .  A
C1081      C1082   1.409       .  A
C1081      C1084   1.453       .  S
C1082      C1085   1.449       .  S
C1083      N1090   1.157       .  T
C1084      N1089   1.157       .  T
C1085      N1087   1.156       .  T
C1086      N1088   1.157       .  T
C1091      C1092   1.417       .  A
C1091      C1096   1.411       .  A
C1092      C1093   1.405       .  A
C1092      C1097   1.456       .  S
C1093      C1094   1.414       .  A
C1093      C1100   1.449       .  S
C1094      C1095   1.427       .  A
C1095      C1096   1.417       .  A
C1095      C1098   1.451       .  S
C1096      C1099   1.449       .  S
C1097      N1104   1.157       .  T
C1098      N1103   1.157       .  T
C1099      N1101   1.157   1_545  T
C1100      N1102   1.157       .  T
C1105      C1106   1.410       .  A
C1105      C1110   1.406       .  A
C1106      C1107   1.401       .  A
C1106      C1111   1.446       .  S
C1107      C1108   1.402       .  A
C1107      C1114   1.430       .  S
C1108      C1109   1.430       .  A
C1109      C1110   1.427       .  A
C1109      C1112   1.435       .  S
C1110      C1113   1.451       .  S
C1111      N1118   1.156       .  T
C1112      N1117   1.154       .  T
C1113      N1115   1.157       .  T
C1114      N1116   1.152       .  T
C1119      C1120   1.426       .  A
C1119      C1124   1.421       .  A
C1120      C1121   1.420       .  A
C1120      C1125   1.446       .  S
C1121      C1122   1.408       .  A
C1121      C1128   1.451       .  S
C1122      C1123   1.406       .  A
C1123      C1124   1.417       .  A
C1123      C1126   1.449   1_545  S
C1124      C1127   1.447   1_545  S
C1125      N1132   1.157       .  T
C1126      N1131   1.156       .  T
C1127      N1129   1.157       .  T
C1128      N1130   1.157       .  T
C1133      C1134   1.427       .  A
C1133      C1138   1.416       .  A
C1134      C1135   1.409       .  A
C1134      C1139   1.446       .  S
C1135      C1136   1.411       .  A
C1135      C1142   1.456       .  S
C1136      C1137   1.413       .  A
C1137      C1138   1.419       .  A
C1137      C1140   1.444       .  S
C1138      C1141   1.448       .  S
C1139      N1146   1.155       .  T
C1140      N1145   1.155       .  T
C1141      N1143   1.157       .  T
C1142      N1144   1.158       .  T
C1147      C1148   1.422       .  A
C1147      C1152   1.408       .  A
C1148      C1149   1.428       .  A
C1148      C1153   1.445       .  S
C1149      C1150   1.410       .  A
C1149      C1156   1.441       .  S
C1150      C1151   1.412       .  A
C1151      C1152   1.409       .  A
C1151      C1154   1.446       .  S
C1152      C1155   1.449       .  S
C1153      N1160   1.158       .  T
C1154      N1159   1.157       .  T
C1155      N1157   1.157       .  T
C1156      N1158   1.156       .  T
C1161      C1162   1.418       .  A
C1161      C1166   1.411       .  A
C1162      C1163   1.398       .  A
C1162      C1167   1.447       .  S
C1163      C1164   1.410       .  A
C1163      C1170   1.453       .  S
C1164      C1165   1.421       .  A
C1165      C1166   1.414       .  A
C1165      C1168   1.446       .  S
C1166      C1169   1.450       .  S
C1167      N1174   1.157       .  T
C1168      N1173   1.156       .  T
C1169      N1171   1.157       .  T
C1170      N1172   1.157       .  T
C1175      C1176   1.423       .  A
C1175      C1180   1.412       .  A
C1176      C1177   1.417       .  A
C1176      C1181   1.447       .  S
C1177      C1178   1.411       .  A
C1177      C1184   1.451       .  S
C1178      C1179   1.414       .  A
C1179      C1180   1.400       .  A
C1179      C1182   1.444       .  S
C1180      C1183   1.455       .  S
C1181      N1188   1.156       .  T
C1182      N1187   1.156       .  T
C1183      N1185   1.158       .  T
C1184      N1186   1.157       .  T
C1189      C1190   1.419       .  A
C1189      C1194   1.422       .  A
C1190      C1191   1.433       .  A
C1190      C1195   1.450       .  S
C1191      C1192   1.431       .  A
C1191      C1198   1.445       .  S
C1192      C1193   1.424       .  A
C1193      C1194   1.413       .  A
C1193      C1196   1.446       .  S
C1194      C1197   1.454       .  S
C1195      N1202   1.157       .  T
C1196      N1201   1.158       .  T
C1197      N1199   1.158       .  T
C1198      N1200   1.157       .  T
C1203      C1204   1.410       .  A
C1203      C1208   1.412       .  A
C1204      C1205   1.424       .  A
C1204      C1209   1.449   1_455  S
C1205      C1206   1.425       .  A
C1205      C1212   1.447       .  S
C1206      C1207   1.418       .  A
C1207      C1208   1.410       .  A
C1207      C1210   1.446       .  S
C1208      C1211   1.449       .  S
C1209      N1216   1.157       .  T
C1210      N1215   1.157       .  T
C1211      N1213   1.154       .  T
C1212      N1214   1.157   1_455  T
C1217      C1218   1.406       .  A
C1217      C1222   1.449       .  A
C1218      C1219   1.399       .  A
C1218      C1223   1.446       .  S
C1219      C1220   1.413       .  A
C1219      C1226   1.448       .  S
C1220      C1221   1.397       .  A
C1221      C1222   1.423       .  A
C1221      C1224   1.438       .  S
C1222      C1225   1.448       .  S
C1223      N1230   1.157       .  T
C1224      N1229   1.155       .  T
C1225      N1227   1.158       .  T
C1226      N1228   1.157       .  T
C1231      C1232   1.405       .  A
C1231      C1236   1.441       .  A
C1232      C1233   1.395       .  A
C1232      C1237   1.447       .  S
C1233      C1234   1.421       .  A
C1233      C1240   1.449       .  S
C1234      C1235   1.406       .  A
C1235      C1236   1.414       .  A
C1235      C1238   1.448       .  S
C1236      C1239   1.452       .  S
C1237      N1244   1.157       .  T
C1238      N1243   1.156       .  T
C1239      N1241   1.158       .  T
C1240      N1242   1.158       .  T
C1245      C1246   1.422       .  A
C1245      C1250   1.413       .  A
C1246      C1247   1.422       .  A
C1246      C1251   1.446       .  S
C1247      C1248   1.411       .  A
C1247      C1254   1.448       .  S
C1248      C1249   1.399       .  A
C1249      C1250   1.402       .  A
C1249      C1252   1.454       .  S
C1250      C1253   1.417       .  S
C1251      N1258   1.157       .  T
C1252      N1257   1.156       .  T
C1253      N1255   1.145       .  T
C1254      N1256   1.157       .  T
C1259      C1260   1.412       .  A
C1259      C1264   1.413       .  A
C1260      C1261   1.412       .  A
C1260      C1265   1.451       .  S
C1261      C1262   1.423       .  A
C1261      C1268   1.451       .  S
C1262      C1263   1.418       .  A
C1263      C1264   1.411       .  A
C1263      C1266   1.453       .  S
C1264      C1267   1.444       .  S
C1265      N1272   1.157       .  T
C1266      N1271   1.158       .  T
C1267      N1269   1.155       .  T
C1268      N1270   1.158       .  T
C1273      C1274   1.405       .  A
C1273      C1278   1.404       .  A
C1274      C1275   1.407       .  A
C1274      C1279   1.451       .  S
C1275      C1276   1.419       .  A
C1275      C1282   1.447       .  S
C1276      C1277   1.420       .  A
C1277      C1278   1.404       .  A
C1277      C1280   1.442       .  S
C1278      C1281   1.453       .  S
C1279      N1286   1.157       .  T
C1280      N1285   1.155       .  T
C1281      N1283   1.157       .  T
C1282      N1284   1.157       .  T
C1287      C1288   1.428       .  A
C1287      C1292   1.407       .  A
C1288      C1289   1.425       .  A
C1288      C1293   1.446       .  S
C1289      C1290   1.420       .  A
C1289      C1296   1.447       .  S
C1290      C1291   1.414       .  A
C1291      C1292   1.387       .  A
C1291      C1294   1.452       .  S
C1292      C1295   1.448       .  S
C1293      N1300   1.157       .  T
C1294      N1299   1.158       .  T
C1295      N1297   1.157       .  T
C1296      N1298   1.157       .  T
C1301      C1302   1.421       .  A
C1301      C1306   1.417       .  A
C1302      C1303   1.414       .  A
C1302      C1307   1.449       .  S
C1303      C1304   1.413       .  A
C1303      C1310   1.452       .  S
C1304      C1305   1.415       .  A
C1305      C1306   1.415       .  A
C1305      C1308   1.450       .  S
C1306      C1309   1.451       .  S
C1307      N1314   1.157       .  T
C1308      N1313   1.156       .  T
C1309      N1311   1.158       .  T
C1310      N1312   1.157   1_545  T
C1315      C1316   1.410       .  A
C1315      C1320   1.404       .  A
C1316      C1317   1.410       .  A
C1316      C1321   1.446       .  S
C1317      C1318   1.417       .  A
C1317      C1324   1.447       .  S
C1318      C1319   1.428       .  A
C1319      C1320   1.417       .  A
C1319      C1322   1.446       .  S
C1320      C1323   1.452       .  S
C1321      N1328   1.153       .  T
C1322      N1327   1.157       .  T
C1323      N1325   1.157       .  T
C1324      N1326   1.156       .  T
C1329      C1330   1.412       .  A
C1329      C1334   1.414       .  A
C1330      C1331   1.416       .  A
C1330      C1335   1.451       .  S
C1331      C1332   1.418       .  A
C1331      C1338   1.448       .  S
C1332      C1333   1.418       .  A
C1333      C1334   1.415       .  A
C1333      C1336   1.451       .  S
C1334      C1337   1.451       .  S
C1335      N1342   1.157   1_545  T
C1336      N1341   1.157       .  T
C1337      N1339   1.157       .  T
C1338      N1340   1.157   1_545  T
C1343      C1344   1.409       .  A
C1343      C1348   1.414       .  A
C1344      C1345   1.417       .  A
C1344      C1349   1.448       .  S
C1345      C1346   1.423       .  A
C1345      C1352   1.447       .  S
C1346      C1347   1.417       .  A
C1347      C1348   1.407       .  A
C1347      C1350   1.453       .  S
C1348      C1351   1.441       .  S
C1349      N1356   1.157       .  T
C1350      N1355   1.157       .  T
C1351      N1353   1.153       .  T
C1352      N1354   1.157       .  T
C1357      C1358   1.421       .  A
C1357      C1362   1.417       .  A
C1358      C1359   1.416       .  A
C1358      C1363   1.450       .  S
C1359      C1360   1.416       .  A
C1359      C1366   1.451       .  S
C1360      C1361   1.418       .  A
C1361      C1362   1.407       .  A
C1361      C1364   1.448       .  S
C1362      C1365   1.457       .  S
C1363      N1370   1.156       .  T
C1364      N1369   1.157       .  T
C1365      N1367   1.158       .  T
C1366      N1368   1.158       .  T
C1371      C1372   1.417       .  A
C1371      C1376   1.421       .  A
C1372      C1373   1.402       .  A
C1372      C1377   1.444       .  S
C1373      C1374   1.406       .  A
C1373      C1380   1.448       .  S
C1374      C1375   1.412       .  A
C1375      C1376   1.410       .  A
C1375      C1378   1.451       .  S
C1376      C1379   1.451       .  S
C1377      N1384   1.155       .  T
C1378      N1383   1.157       .  T
C1379      N1381   1.158       .  T
C1380      N1382   1.155       .  T
C1385      C1386   1.414       .  A
C1385      C1390   1.409       .  A
C1386      C1387   1.415       .  A
C1386      C1391   1.450       .  S
C1387      C1388   1.424       .  A
C1387      C1394   1.443       .  S
C1388      C1389   1.421       .  A
C1389      C1390   1.414       .  A
C1389      C1392   1.443       .  S
C1390      C1393   1.448       .  S
C1391      N1398   1.156       .  T
C1392      N1397   1.157       .  T
C1393      N1395   1.157       .  T
C1394      N1396   1.157       .  T
C1399      C1400   1.413       .  A
C1399      C1404   1.412       .  A
C1400      C1401   1.417       .  A
C1400      C1405   1.447       .  S
C1401      C1402   1.410       .  A
C1401      C1408   1.442       .  S
C1402      C1403   1.417       .  A
C1403      C1404   1.416       .  A
C1403      C1406   1.441       .  S
C1404      C1407   1.449       .  S
C1405      N1412   1.157       .  T
C1406      N1411   1.154       .  T
C1407      N1409   1.157       .  T
C1408      N1410   1.157       .  T
C1413      C1414   1.405       .  A
C1413      C1418   1.418       .  A
C1414      C1415   1.413       .  A
C1414      C1419   1.448       .  S
C1415      C1416   1.426       .  A
C1415      C1422   1.447       .  S
C1416      C1417   1.411       .  A
C1417      C1418   1.418       .  A
C1417      C1420   1.449       .  S
C1418      C1421   1.447       .  S
C1419      N1426   1.157       .  T
C1420      N1425   1.157       .  T
C1421      N1423   1.156       .  T
C1422      N1424   1.157   1_545  T
C1427      C1428   1.426       .  A
C1427      C1432   1.413       .  A
C1428      C1429   1.418       .  A
C1428      C1433   1.450       .  S
C1429      C1430   1.417       .  A
C1429      C1436   1.451       .  S
C1430      C1431   1.429       .  A
C1431      C1432   1.412       .  A
C1431      C1434   1.453       .  S
C1432      C1435   1.452       .  S
C1433      N1440   1.158       .  T
C1434      N1439   1.158       .  T
C1435      N1437   1.157       .  T
C1436      N1438   1.157       .  T
C1441      C1442   1.421       .  A
C1441      C1446   1.451       .  A
C1442      C1443   1.422       .  A
C1442      C1447   1.445       .  S
C1443      C1444   1.420       .  A
C1443      C1450   1.442       .  S
C1444      C1445   1.406       .  A
C1445      C1446   1.419       .  A
C1445      C1448   1.451       .  S
C1446      C1449   1.453       .  S
C1447      N1454   1.158       .  T
C1448      N1453   1.156       .  T
C1449      N1451   1.158       .  T
C1450      N1452   1.157       .  T
C1455      C1456   1.416       .  A
C1455      C1460   1.420       .  A
C1456      C1457   1.409       .  A
C1456      C1461   1.445       .  S
C1457      C1458   1.406       .  A
C1457      C1464   1.447       .  S
C1458      C1459   1.410       .  A
C1459      C1460   1.410       .  A
C1459      C1462   1.452       .  S
C1460      C1463   1.449       .  S
C1461      N1468   1.155       .  T
C1462      N1467   1.157       .  T
C1463      N1465   1.158       .  T
C1464      N1466   1.156       .  T
C1469      C1470   1.411       .  A
C1469      C1474   1.410       .  A
C1470      C1471   1.415       .  A
C1470      C1475   1.446       .  S
C1471      C1472   1.410       .  A
C1471      C1478   1.436       .  S
C1472      C1473   1.421       .  A
C1473      C1474   1.419       .  A
C1473      C1476   1.446       .  S
C1474      C1477   1.449       .  S
C1475      N1482   1.156       .  T
C1476      N1481   1.157       .  T
C1477      N1479   1.157       .  T
C1478      N1480   1.152       .  T
C1483      C1484   1.399       .  A
C1483      C1488   1.415       .  A
C1484      C1485   1.397       .  A
C1484      C1489   1.428       .  S
C1485      C1486   1.414       .  A
C1485      C1492   1.448       .  S
C1486      C1487   1.422       .  A
C1487      C1488   1.418       .  A
C1487      C1490   1.450       .  S
C1488      C1491   1.448       .  S
C1489      N1496   1.147       .  T
C1490      N1495   1.157       .  T
C1491      N1493   1.157       .  T
C1492      N1494   1.155       .  T
C1497      C1498   1.410       .  A
C1497      C1502   1.407       .  A
C1498      C1499   1.413       .  A
C1498      C1503   1.450       .  S
C1499      C1500   1.417       .  A
C1499      C1506   1.448       .  S
C1500      C1501   1.427       .  A
C1501      C1502   1.408       .  A
C1501      C1504   1.449       .  S
C1502      C1505   1.454       .  S
C1503      N1510   1.158       .  T
C1504      N1509   1.157       .  T
C1505      N1507   1.157       .  T
C1506      N1508   1.157       .  T
C1511      C1512   1.409       .  A
C1511      C1516   1.413       .  A
C1512      C1513   1.400       .  A
C1512      C1517   1.453       .  S
C1513      C1514   1.419       .  A
C1513      C1520   1.452       .  S
C1514      C1515   1.412       .  A
C1515      C1516   1.402       .  A
C1515      C1518   1.452       .  S
C1516      C1519   1.450       .  S
C1517      N1524   1.157       .  T
C1518      N1523   1.157       .  T
C1519      N1521   1.156       .  T
C1520      N1522   1.157       .  T
C1525      C1526   1.421       .  A
C1525      C1530   1.411       .  A
C1526      C1527   1.421       .  A
C1526      C1531   1.451       .  S
C1527      C1528   1.420       .  A
C1527      C1534   1.446       .  S
C1528      C1529   1.420       .  A
C1529      C1530   1.409       .  A
C1529      C1532   1.445       .  S
C1530      C1533   1.451       .  S
C1531      N1538   1.157       .  T
C1532      N1537   1.157       .  T
C1533      N1535   1.157       .  T
C1534      N1536   1.157       .  T
C1539      C1540   1.409       .  A
C1539      C1544   1.414       .  A
C1540      C1541   1.413       .  A
C1540      C1545   1.451       .  S
C1541      C1542   1.421       .  A
C1541      C1548   1.447       .  S
C1542      C1543   1.417       .  A
C1543      C1544   1.412       .  A
C1543      C1546   1.451       .  S
C1544      C1547   1.451       .  S
C1545      N1552   1.157       .  T
C1546      N1551   1.157       .  T
C1547      N1549   1.157       .  T
C1548      N1550   1.157       .  T
C1553      C1554   1.415       .  A
C1553      C1558   1.419       .  A
C1554      C1555   1.425       .  A
C1554      C1559   1.450       .  S
C1555      C1556   1.424       .  A
C1555      C1562   1.448       .  S
C1556      C1557   1.419       .  A
C1557      C1558   1.414       .  A
C1557      C1560   1.449       .  S
C1558      C1561   1.453       .  S
C1559      N1566   1.157       .  T
C1560      N1565   1.158       .  T
C1561      N1563   1.156       .  T
C1562      N1564   1.157       .  T
C1567      C1568   1.425       .  A
C1567      C1572   1.426       .  A
C1568      C1569   1.413       .  A
C1568      C1573   1.444       .  S
C1569      C1570   1.411       .  A
C1569      C1576   1.449       .  S
C1570      C1571   1.417       .  A
C1571      C1572   1.428       .  A
C1571      C1574   1.450       .  S
C1572      C1575   1.441       .  S
C1573      N1580   1.157       .  T
C1574      N1579   1.157       .  T
C1575      N1577   1.155       .  T
C1576      N1578   1.156       .  T
C1581      C1582   1.434       .  A
C1581      C1586   1.429       .  A
C1582      C1583   1.448       .  A
C1582      C1587   1.444       .  S
C1583      C1584   1.425       .  A
C1583      C1590   1.435       .  S
C1584      C1585   1.391       .  A
C1585      C1586   1.394       .  A
C1585      C1588   1.439       .  S
C1586      C1589   1.437       .  S
C1587      N1594   1.157       .  T
C1588      N1593   1.158   1_556  T
C1589      N1591   1.157       .  T
C1590      N1592   1.154       .  T
C1595      C1596   1.427       .  A
C1595      C1600   1.409       .  A
C1596      C1597   1.416       .  A
C1596      C1601   1.449       .  S
C1597      C1598   1.409       .  A
C1597      C1604   1.449       .  S
C1598      C1599   1.408       .  A
C1599      C1600   1.408       .  A
C1599      C1602   1.447       .  S
C1600      C1603   1.450       .  S
C1601      N1608   1.157       .  T
C1602      N1607   1.157       .  T
C1603      N1605   1.157       .  T
C1604      N1606   1.157       .  T
C1609      C1610   1.430   1_565  A
C1609      C1614   1.427       .  A
C1610      C1611   1.442       .  A
C1610      C1615   1.444       .  S
C1611      C1612   1.428       .  A
C1611      C1618   1.445       .  S
C1612      C1613   1.416       .  A
C1613      C1614   1.405   1_545  A
C1613      C1616   1.445   1_545  S
C1614      C1617   1.447       .  S
C1615      N1622   1.156       .  T
C1616      N1621   1.156       .  T
C1617      N1619   1.158       .  T
C1618      N1620   1.157       .  T
C1623      C1624   1.420       .  A
C1623      C1628   1.414       .  A
C1624      C1625   1.429       .  A
C1624      C1629   1.444       .  S
C1625      C1626   1.416       .  A
C1625      C1632   1.446       .  S
C1626      C1627   1.402       .  A
C1627      C1628   1.385       .  A
C1627      C1630   1.446       .  S
C1628      C1631   1.444       .  S
C1629      N1636   1.157       .  T
C1630      N1635   1.152       .  T
C1631      N1633   1.157       .  T
C1632      N1634   1.157       .  T
C1637      C1638   1.405       .  A
C1637      C1642   1.412       .  A
C1638      C1639   1.392       .  A
C1638      C1643   1.445       .  S
C1639      C1640   1.412       .  A
C1639      C1646   1.449       .  S
C1640      C1641   1.415       .  A
C1641      C1642   1.403       .  A
C1641      C1644   1.451       .  S
C1642      C1645   1.451       .  S
C1643      N1650   1.154       .  T
C1644      N1649   1.157       .  T
C1645      N1647   1.157       .  T
C1646      N1648   1.155       .  T
C1651      C1652   1.411       .  A
C1651      C1656   1.404       .  A
C1652      C1653   1.417       .  A
C1652      C1657   1.450       .  S
C1653      C1654   1.422       .  A
C1653      C1660   1.448       .  S
C1654      C1655   1.423       .  A
C1655      C1656   1.409       .  A
C1655      C1658   1.442       .  S
C1656      C1659   1.452       .  S
C1657      N1664   1.157       .  T
C1658      N1663   1.156       .  T
C1659      N1661   1.157       .  T
C1660      N1662   1.156       .  T
C1665      C1666   1.410       .  A
C1665      C1670   1.414       .  A
C1666      C1667   1.397       .  A
C1666      C1671   1.453       .  S
C1667      C1668   1.415       .  A
C1667      C1674   1.452       .  S
C1668      C1669   1.411       .  A
C1669      C1670   1.404       .  A
C1669      C1672   1.450       .  S
C1670      C1673   1.450       .  S
C1671      N1678   1.157       .  T
C1672      N1677   1.157       .  T
C1673      N1675   1.157       .  T
C1674      N1676   1.157       .  T
C1679      C1680   1.408       .  A
C1679      C1684   1.407       .  A
C1680      C1681   1.413       .  A
C1680      C1685   1.456       .  S
C1681      C1682   1.428       .  A
C1681      C1688   1.441       .  S
C1682      C1683   1.413       .  A
C1683      C1684   1.403       .  A
C1683      C1686   1.441       .  S
C1684      C1687   1.453       .  S
C1685      N1692   1.158       .  T
C1686      N1691   1.157       .  T
C1687      N1689   1.157       .  T
C1688      N1690   1.158       .  T
C1693      C1694   1.423       .  A
C1693      C1698   1.418       .  A
C1694      C1695   1.419       .  A
C1694      C1699   1.444       .  S
C1695      C1696   1.410       .  A
C1695      C1702   1.452       .  S
C1696      C1697   1.406       .  A
C1697      C1698   1.407       .  A
C1697      C1700   1.452       .  S
C1698      C1701   1.445       .  S
C1699      N1706   1.157   1_545  T
C1700      N1705   1.156       .  T
C1701      N1703   1.157       .  T
C1702      N1704   1.157   1_545  T
C1707      C1708   1.410       .  A
C1707      C1712   1.412       .  A
C1708      C1709   1.418       .  A
C1708      C1713   1.449       .  S
C1709      C1710   1.417       .  A
C1709      C1716   1.441       .  S
C1710      C1711   1.425       .  A
C1711      C1712   1.421       .  A
C1711      C1714   1.446       .  S
C1712      C1715   1.453       .  S
C1713      N1720   1.157       .  T
C1714      N1719   1.158       .  T
C1715      N1717   1.157       .  T
C1716      N1718   1.155       .  T
C1721      C1722   1.415       .  A
C1721      C1726   1.429       .  A
C1722      C1723   1.406       .  A
C1722      C1727   1.452       .  S
C1723      C1724   1.422       .  A
C1723      C1730   1.455       .  S
C1724      C1725   1.400       .  A
C1725      C1726   1.403       .  A
C1725      C1728   1.453       .  S
C1726      C1729   1.452       .  S
C1727      N1734   1.158       .  T
C1728      N1733   1.157       .  T
C1729      N1731   1.157       .  T
C1730      N1732   1.157       .  T
C1735      C1736   1.415       .  A
C1735      C1740   1.419       .  A
C1736      C1737   1.422       .  A
C1736      C1741   1.446       .  S
C1737      C1738   1.410       .  A
C1737      C1744   1.443       .  S
C1738      C1739   1.409       .  A
C1739      C1740   1.412       .  A
C1739      C1742   1.438       .  S
C1740      C1743   1.447       .  S
C1741      N1748   1.157       .  T
C1742      N1747   1.153       .  T
C1743      N1745   1.157       .  T
C1744      N1746   1.157       .  T
C1749      C1750   1.419       .  A
C1749      C1754   1.413       .  A
C1750      C1751   1.410       .  A
C1750      C1755   1.441       .  S
C1751      C1752   1.417       .  A
C1751      C1758   1.457       .  S
C1752      C1753   1.413       .  A
C1753      C1754   1.411       .  A
C1753      C1756   1.444       .  S
C1754      C1757   1.449       .  S
C1755      N1762   1.153       .  T
C1756      N1761   1.156       .  T
C1757      N1759   1.157       .  T
C1758      N1760   1.158       .  T
C1763      C1764   1.437       .  A
C1763      C1768   1.424       .  A
C1764      C1765   1.397       .  A
C1764      C1769   1.443       .  S
C1765      C1766   1.395       .  A
C1765      C1772   1.460       .  S
C1766      C1767   1.409       .  A
C1767      C1768   1.421       .  A
C1767      C1770   1.447       .  S
C1768      C1771   1.448       .  S
C1769      N1776   1.159       .  T
C1770      N1775   1.157       .  T
C1771      N1773   1.157       .  T
C1772      N1774   1.157       .  T
C1777      C1778   1.416       .  A
C1777      C1782   1.409       .  A
C1778      C1779   1.415       .  A
C1778      C1783   1.448       .  S
C1779      C1780   1.423       .  A
C1779      C1786   1.453       .  S
C1780      C1781   1.414       .  A
C1781      C1782   1.411       .  A
C1781      C1784   1.448       .  S
C1782      C1785   1.437       .  S
C1783      N1790   1.157       .  T
C1784      N1789   1.157       .  T
C1785      N1787   1.154       .  T
C1786      N1788   1.158       .  T
C1791      C1792   1.423       .  A
C1791      C1796   1.412       .  A
C1792      C1793   1.409       .  A
C1792      C1797   1.450       .  S
C1793      C1794   1.410       .  A
C1793      C1800   1.451       .  S
C1794      C1795   1.406       .  A
C1795      C1796   1.400       .  A
C1795      C1798   1.443       .  S
C1796      C1799   1.444       .  S
C1797      N1804   1.157       .  T
C1798      N1803   1.154       .  T
C1799      N1801   1.155       .  T
C1800      N1802   1.157       .  T
C1805      C1806   1.405       .  A
C1805      C1810   1.420       .  A
C1806      C1807   1.427       .  A
C1806      C1811   1.446       .  S
C1807      C1808   1.446       .  A
C1807      C1814   1.448       .  S
C1808      C1809   1.405       .  A
C1809      C1810   1.411       .  A
C1809      C1812   1.448       .  S
C1810      C1813   1.447       .  S
C1811      N1818   1.156       .  T
C1812      N1817   1.157       .  T
C1813      N1815   1.158       .  T
C1814      N1816   1.158       .  T
C1819      C1820   1.409       .  A
C1819      C1824   1.417       .  A
C1820      C1821   1.415       .  A
C1820      C1825   1.449       .  S
C1821      C1822   1.423       .  A
C1821      C1828   1.449       .  S
C1822      C1823   1.416       .  A
C1823      C1824   1.407       .  A
C1823      C1826   1.451       .  S
C1824      C1827   1.447       .  S
C1825      N1832   1.157       .  T
C1826      N1831   1.157       .  T
C1827      N1829   1.155   1_554  T
C1828      N1830   1.157       .  T
C1833      C1834   1.410       .  A
C1833      C1838   1.415       .  A
C1834      C1835   1.410       .  A
C1834      C1839   1.453       .  S
C1835      C1836   1.428       .  A
C1835      C1842   1.453       .  S
C1836      C1837   1.412       .  A
C1837      C1838   1.413       .  A
C1837      C1840   1.448       .  S
C1838      C1841   1.452       .  S
C1839      N1846   1.157       .  T
C1840      N1845   1.157       .  T
C1841      N1843   1.157       .  T
C1842      N1844   1.158       .  T
C1847      C1848   1.411       .  A
C1847      C1852   1.413       .  A
C1848      C1849   1.420       .  A
C1848      C1853   1.452       .  S
C1849      C1850   1.421       .  A
C1849      C1856   1.444       .  S
C1850      C1851   1.421       .  A
C1851      C1852   1.419       .  A
C1851      C1854   1.451       .  S
C1852      C1855   1.447       .  S
C1853      N1860   1.157       .  T
C1854      N1859   1.157       .  T
C1855      N1857   1.156       .  T
C1856      N1858   1.156       .  T
C1861      C1862   1.415       .  A
C1861      C1866   1.410       .  A
C1862      C1863   1.417       .  A
C1862      C1867   1.450       .  S
C1863      C1864   1.420       .  A
C1863      C1870   1.449       .  S
C1864      C1865   1.419       .  A
C1865      C1866   1.414       .  A
C1865      C1868   1.446       .  S
C1866      C1869   1.447       .  S
C1867      N1874   1.157       .  T
C1868      N1873   1.156       .  T
C1869      N1871   1.156       .  T
C1870      N1872   1.157       .  T
C1875      C1876   1.413       .  A
C1875      C1880   1.383       .  A
C1876      C1877   1.423       .  A
C1876      C1881   1.447       .  S
C1877      C1878   1.424       .  A
C1877      C1884   1.445       .  S
C1878      C1879   1.420       .  A
C1879      C1880   1.382       .  A
C1879      C1882   1.432       .  S
C1880      C1883   1.443       .  S
C1881      N1888   1.157       .  T
C1882      N1887   1.154       .  T
C1883      N1885   1.155       .  T
C1884      N1886   1.157       .  T
C1889      C1890   1.420       .  A
C1889      C1894   1.423       .  A
C1890      C1891   1.416       .  A
C1890      C1895   1.449       .  S
C1891      C1892   1.411       .  A
C1891      C1898   1.449       .  S
C1892      C1893   1.415       .  A
C1893      C1894   1.413       .  A
C1893      C1896   1.451       .  S
C1894      C1897   1.448       .  S
C1895      N1902   1.158       .  T
C1896      N1901   1.158       .  T
C1897      N1899   1.156       .  T
C1898      N1900   1.157       .  T
C1903      C1904   1.420       .  A
C1903      C1908   1.411       .  A
C1904      C1905   1.415       .  A
C1904      C1909   1.452       .  S
C1905      C1906   1.416       .  A
C1905      C1912   1.448       .  S
C1906      C1907   1.411       .  A
C1907      C1908   1.401       .  A
C1907      C1910   1.447       .  S
C1908      C1911   1.449       .  S
C1909      N1916   1.158       .  T
C1910      N1915   1.157       .  T
C1911      N1913   1.155       .  T
C1912      N1914   1.157       .  T
C1917      C1918   1.413       .  A
C1917      C1922   1.414       .  A
C1918      C1919   1.418       .  A
C1918      C1923   1.447   1_455  S
C1919      C1920   1.409       .  A
C1919      C1926   1.440       .  S
C1920      C1921   1.420       .  A
C1921      C1922   1.423       .  A
C1921      C1924   1.446       .  S
C1922      C1925   1.450       .  S
C1923      N1930   1.157       .  T
C1924      N1929   1.157       .  T
C1925      N1927   1.157       .  T
C1926      N1928   1.156   1_455  T
C1931      C1932   1.408       .  A
C1931      C1936   1.423       .  A
C1932      C1933   1.422       .  A
C1932      C1937   1.450       .  S
C1933      C1934   1.435       .  A
C1933      C1940   1.442       .  S
C1934      C1935   1.417       .  A
C1935      C1936   1.403       .  A
C1935      C1938   1.445       .  S
C1936      C1939   1.452       .  S
C1937      N1944   1.157       .  T
C1938      N1943   1.158       .  T
C1939      N1941   1.157       .  T
C1940      N1942   1.157       .  T
C1945      C1946   1.437       .  A
C1945      C1950   1.408       .  A
C1946      C1947   1.411       .  A
C1946      C1951   1.444       .  S
C1947      C1948   1.406       .  A
C1947      C1954   1.453       .  S
C1948      C1949   1.430       .  A
C1949      C1950   1.406       .  A
C1949      C1952   1.448       .  S
C1950      C1953   1.451       .  S
C1951      N1958   1.158       .  T
C1952      N1957   1.156       .  T
C1953      N1955   1.157       .  T
C1954      N1956   1.157       .  T
C1959      C1960   1.414       .  A
C1959      C1964   1.426       .  A
C1960      C1961   1.404   1_455  A
C1960      C1965   1.448       .  S
C1961      C1962   1.417       .  A
C1961      C1968   1.450       .  S
C1962      C1963   1.422   1_655  A
C1963      C1964   1.427       .  A
C1963      C1966   1.452       .  S
C1964      C1967   1.443       .  S
C1965      N1972   1.155   1_455  T
C1966      N1971   1.157       .  T
C1967      N1969   1.158       .  T
C1968      N1970   1.157       .  T
C1973      C1974   1.408       .  A
C1973      C1978   1.401       .  A
C1974      C1975   1.422       .  A
C1974      C1979   1.452       .  S
C1975      C1976   1.425       .  A
C1975      C1982   1.446       .  S
C1976      C1977   1.427       .  A
C1977      C1978   1.412       .  A
C1977      C1980   1.441       .  S
C1978      C1981   1.448       .  S
C1979      N1986   1.157       .  T
C1980      N1985   1.156       .  T
C1981      N1983   1.157       .  T
C1982      N1984   1.157   1_556  T
C1987      C1988   1.409       .  A
C1987      C1992   1.416       .  A
C1988      C1989   1.413       .  A
C1988      C1993   1.448       .  S
C1989      C1990   1.425       .  A
C1989      C1996   1.443       .  S
C1990      C1991   1.413       .  A
C1991      C1992   1.413       .  A
C1991      C1994   1.454       .  S
C1992      C1995   1.433       .  S
C1993      N2000   1.157       .  T
C1994      N1999   1.157       .  T
C1995      N1997   1.154       .  T
C1996      N1998   1.158       .  T
C2001      C2002   1.423       .  A
C2001      C2006   1.414       .  A
C2002      C2003   1.403       .  A
C2002      C2007   1.454       .  S
C2003      C2004   1.410       .  A
C2003      C2010   1.451       .  S
C2004      C2005   1.420       .  A
C2005      C2006   1.412       .  A
C2005      C2008   1.449       .  S
C2006      C2009   1.453       .  S
C2007      N2014   1.157       .  T
C2008      N2013   1.158       .  T
C2009      N2011   1.158       .  T
C2010      N2012   1.158       .  T
C2015      C2016   1.410       .  A
C2015      C2020   1.416       .  A
C2016      C2017   1.416       .  A
C2016      C2021   1.453       .  S
C2017      C2018   1.423       .  A
C2017      C2024   1.443       .  S
C2018      C2019   1.418       .  A
C2019      C2020   1.413       .  A
C2019      C2022   1.447       .  S
C2020      C2023   1.454       .  S
C2021      N2028   1.157       .  T
C2022      N2027   1.157       .  T
C2023      N2025   1.157       .  T
C2024      N2026   1.157       .  T
C2029      C2030   1.413       .  A
C2029      C2034   1.415       .  A
C2030      C2031   1.398       .  A
C2030      C2035   1.453       .  S
C2031      C2032   1.415       .  A
C2031      C2038   1.453       .  S
C2032      C2033   1.407       .  A
C2033      C2034   1.399       .  A
C2033      C2036   1.454       .  S
C2034      C2037   1.444       .  S
C2035      N2042   1.157       .  T
C2036      N2041   1.157       .  T
C2037      N2039   1.154       .  T
C2038      N2040   1.157       .  T
C2043      C2044   1.411       .  A
C2043      C2048   1.407       .  A
C2044      C2045   1.415       .  A
C2044      C2049   1.448       .  S
C2045      C2046   1.412       .  A
C2045      C2052   1.445       .  S
C2046      C2047   1.410       .  A
C2047      C2048   1.405       .  A
C2047      C2050   1.435       .  S
C2048      C2051   1.451       .  S
C2049      N2056   1.157       .  T
C2050      N2055   1.154       .  T
C2051      N2053   1.157       .  T
C2052      N2054   1.158       .  T
C2057      C2058   1.411       .  A
C2057      C2062   1.445       .  A
C2058      C2059   1.410       .  A
C2058      C2063   1.447       .  S
C2059      C2060   1.416       .  A
C2059      C2066   1.447       .  S
C2060      C2061   1.400       .  A
C2061      C2062   1.426       .  A
C2061      C2064   1.441       .  S
C2062      C2065   1.447       .  S
C2063      N2070   1.157       .  T
C2064      N2069   1.156       .  T
C2065      N2067   1.157       .  T
C2066      N2068   1.158       .  T
C2071      C2072   1.410       .  A
C2071      C2076   1.407       .  A
C2072      C2073   1.412       .  A
C2072      C2077   1.449       .  S
C2073      C2074   1.416       .  A
C2073      C2080   1.450       .  S
C2074      C2075   1.422       .  A
C2075      C2076   1.414       .  A
C2075      C2078   1.447       .  S
C2076      C2079   1.452       .  S
C2077      N2084   1.157       .  T
C2078      N2083   1.158       .  T
C2079      N2081   1.157       .  T
C2080      N2082   1.157       .  T
C2085      C2086   1.410       .  A
C2085      C2090   1.407       .  A
C2086      C2087   1.411       .  A
C2086      C2091   1.440   1_455  S
C2087      C2088   1.413       .  A
C2087      C2094   1.452   1_455  S
C2088      C2089   1.422       .  A
C2089      C2090   1.412       .  A
C2089      C2092   1.449       .  S
C2090      C2093   1.448       .  S
C2091      N2098   1.153       .  T
C2092      N2097   1.157       .  T
C2093      N2095   1.157       .  T
C2094      N2096   1.157       .  T
C2099      C2100   1.422       .  A
C2099      C2104   1.419       .  A
C2100      C2101   1.420       .  A
C2100      C2105   1.451       .  S
C2101      C2102   1.418       .  A
C2101      C2108   1.446       .  S
C2102      C2103   1.426       .  A
C2103      C2104   1.428       .  A
C2103      C2106   1.444       .  S
C2104      C2107   1.445       .  S
C2105      N2112   1.157       .  T
C2106      N2111   1.157       .  T
C2107      N2109   1.158       .  T
C2108      N2110   1.157   1_554  T
C2113      C2114   1.412       .  A
C2113      C2118   1.421       .  A
C2114      C2115   1.413       .  A
C2114      C2119   1.451       .  S
C2115      C2116   1.411       .  A
C2115      C2122   1.448       .  S
C2116      C2117   1.409       .  A
C2117      C2118   1.411       .  A
C2117      C2120   1.450       .  S
C2118      C2121   1.452       .  S
C2119      N2126   1.156       .  T
C2120      N2125   1.157       .  T
C2121      N2123   1.157       .  T
C2122      N2124   1.155       .  T
C2127      C2128   1.426       .  A
C2127      C2132   1.435       .  A
C2128      C2129   1.415       .  A
C2128      C2133   1.444       .  S
C2129      C2130   1.410       .  A
C2129      C2136   1.455       .  S
C2130      C2131   1.410       .  A
C2131      C2132   1.434       .  A
C2131      C2134   1.447       .  S
C2132      C2135   1.446       .  S
C2133      N2140   1.158       .  T
C2134      N2139   1.158       .  T
C2135      N2137   1.157       .  T
C2136      N2138   1.157       .  T
C2141      C2142   1.413       .  A
C2141      C2146   1.424       .  A
C2142      C2143   1.405       .  A
C2142      C2147   1.452       .  S
C2143      C2144   1.415       .  A
C2143      C2150   1.448       .  S
C2144      C2145   1.412       .  A
C2145      C2146   1.409       .  A
C2145      C2148   1.453       .  S
C2146      C2149   1.450       .  S
C2147      N2154   1.157       .  T
C2148      N2153   1.157       .  T
C2149      N2151   1.157       .  T
C2150      N2152   1.157       .  T
C2155      C2156   1.414       .  A
C2155      C2160   1.417       .  A
C2156      C2157   1.408       .  A
C2156      C2161   1.452       .  S
C2157      C2158   1.416       .  A
C2157      C2164   1.452       .  S
C2158      C2159   1.415       .  A
C2159      C2160   1.406       .  A
C2159      C2162   1.452       .  S
C2160      C2163   1.453       .  S
C2161      N2168   1.157       .  T
C2162      N2167   1.157       .  T
C2163      N2165   1.158       .  T
C2164      N2166   1.158       .  T
C2169      C2170   1.410       .  A
C2169      C2174   1.415       .  A
C2170      C2171   1.408       .  A
C2170      C2175   1.443       .  S
C2171      C2172   1.407       .  A
C2171      C2178   1.442       .  S
C2172      C2173   1.416       .  A
C2173      C2174   1.412       .  A
C2173      C2176   1.451       .  S
C2174      C2177   1.448       .  S
C2175      N2182   1.155       .  T
C2176      N2181   1.157       .  T
C2177      N2179   1.157       .  T
C2178      N2180   1.155       .  T
C2183      C2184   1.407       .  A
C2183      C2188   1.415       .  A
C2184      C2185   1.399       .  A
C2184      C2189   1.446       .  S
C2185      C2186   1.417       .  A
C2185      C2192   1.455       .  S
C2186      C2187   1.419       .  A
C2187      C2188   1.407       .  A
C2187      C2190   1.452       .  S
C2188      C2191   1.452       .  S
C2189      N2196   1.155       .  T
C2190      N2195   1.157       .  T
C2191      N2193   1.158       .  T
C2192      N2194   1.158       .  T
C2197      C2198   1.406       .  A
C2197      C2202   1.407       .  A
C2198      C2199   1.413       .  A
C2198      C2203   1.453       .  S
C2199      C2200   1.418       .  A
C2199      C2206   1.448       .  S
C2200      C2201   1.425       .  A
C2201      C2202   1.414       .  A
C2201      C2204   1.448       .  S
C2202      C2205   1.451       .  S
C2203      N2210   1.158       .  T
C2204      N2209   1.157       .  T
C2205      N2207   1.157       .  T
C2206      N2208   1.156       .  T
C2211      C2212   1.410       .  A
C2211      C2216   1.408       .  A
C2212      C2213   1.422       .  A
C2212      C2217   1.451       .  S
C2213      C2214   1.428       .  A
C2213      C2220   1.445       .  S
C2214      C2215   1.422       .  A
C2215      C2216   1.408       .  A
C2215      C2218   1.445       .  S
C2216      C2219   1.456       .  S
C2217      N2224   1.157       .  T
C2218      N2223   1.158       .  T
C2219      N2221   1.157       .  T
C2220      N2222   1.157       .  T
C2225      C2226   1.423       .  A
C2225      C2230   1.401       .  A
C2226      C2227   1.421       .  A
C2226      C2231   1.443       .  S
C2227      C2228   1.411       .  A
C2227      C2234   1.433       .  S
C2228      C2229   1.419       .  A
C2229      C2230   1.390       .  A
C2229      C2232   1.451       .  S
C2230      C2233   1.447       .  S
C2231      N2238   1.155   1_554  T
C2232      N2237   1.158       .  T
C2233      N2235   1.157       .  T
C2234      N2236   1.151       .  T
C2239      C2240   1.415       .  A
C2239      C2244   1.410       .  A
C2240      C2241   1.405       .  A
C2240      C2245   1.447       .  S
C2241      C2242   1.413       .  A
C2241      C2248   1.447       .  S
C2242      C2243   1.420       .  A
C2243      C2244   1.416       .  A
C2243      C2246   1.448       .  S
C2244      C2247   1.449       .  S
C2245      N2252   1.157       .  T
C2246      N2251   1.157       .  T
C2247      N2249   1.157       .  T
C2248      N2250   1.156       .  T
C2253      C2254   1.422       .  A
C2253      C2258   1.417       .  A
C2254      C2255   1.416       .  A
C2254      C2259   1.448       .  S
C2255      C2256   1.416       .  A
C2255      C2262   1.452       .  S
C2256      C2257   1.413       .  A
C2257      C2258   1.407       .  A
C2257      C2260   1.454       .  S
C2258      C2261   1.445       .  S
C2259      N2266   1.157       .  T
C2260      N2265   1.158       .  T
C2261      N2263   1.157       .  T
C2262      N2264   1.158       .  T
C2267      C2268   1.399       .  A
C2267      C2272   1.412       .  A
C2268      C2269   1.399       .  A
C2268      C2273   1.450       .  S
C2269      C2270   1.420       .  A
C2269      C2276   1.438       .  S
C2270      C2271   1.419       .  A
C2271      C2272   1.414       .  A
C2271      C2274   1.447       .  S
C2272      C2275   1.449       .  S
C2273      N2280   1.157       .  T
C2274      N2279   1.157       .  T
C2275      N2277   1.157       .  T
C2276      N2278   1.153       .  T
C2281      C2282   1.415       .  A
C2281      C2286   1.418       .  A
C2282      C2283   1.406       .  A
C2282      C2287   1.453       .  S
C2283      C2284   1.416       .  A
C2283      C2290   1.452       .  S
C2284      C2285   1.412       .  A
C2285      C2286   1.403       .  A
C2285      C2288   1.455       .  S
C2286      C2289   1.455       .  S
C2287      N2294   1.158       .  T
C2288      N2293   1.158       .  T
C2289      N2291   1.157       .  T
C2290      N2292   1.157       .  T
C2295      C2296   1.419       .  A
C2295      C2300   1.416       .  A
C2296      C2297   1.406       .  A
C2296      C2301   1.448       .  S
C2297      C2298   1.407       .  A
C2297      C2304   1.450       .  S
C2298      C2299   1.407       .  A
C2299      C2300   1.399       .  A
C2299      C2302   1.447       .  S
C2300      C2303   1.447       .  S
C2301      N2308   1.157       .  T
C2302      N2307   1.156       .  T
C2303      N2305   1.156       .  T
C2304      N2306   1.157       .  T
C2309      C2310   1.414       .  A
C2309      C2314   1.411       .  A
C2310      C2311   1.417       .  A
C2310      C2315   1.450       .  S
C2311      C2312   1.426       .  A
C2311      C2318   1.451       .  S
C2312      C2313   1.415       .  A
C2313      C2314   1.408       .  A
C2313      C2316   1.451       .  S
C2314      C2317   1.448       .  S
C2315      N2322   1.157       .  T
C2316      N2321   1.157       .  T
C2317      N2319   1.156       .  T
C2318      N2320   1.158       .  T
C2323      C2324   1.408       .  A
C2323      C2328   1.418       .  A
C2324      C2325   1.410       .  A
C2324      C2329   1.444       .  S
C2325      C2326   1.412       .  A
C2325      C2332   1.447       .  S
C2326      C2327   1.413       .  A
C2327      C2328   1.415       .  A
C2327      C2330   1.451       .  S
C2328      C2331   1.449       .  S
C2329      N2336   1.154       .  T
C2330      N2335   1.157       .  T
C2331      N2333   1.157       .  T
C2332      N2334   1.156       .  T
C2337      C2338   1.411       .  A
C2337      C2342   1.410       .  A
C2338      C2339   1.412       .  A
C2338      C2343   1.454       .  S
C2339      C2340   1.422       .  A
C2339      C2346   1.446       .  S
C2340      C2341   1.428       .  A
C2341      C2342   1.426       .  A
C2341      C2344   1.444       .  S
C2342      C2345   1.450       .  S
C2343      N2350   1.157       .  T
C2344      N2349   1.157       .  T
C2345      N2347   1.157       .  T
C2346      N2348   1.157       .  T
C2351      C2352   1.424       .  A
C2351      C2356   1.406       .  A
C2352      C2353   1.406       .  A
C2352      C2357   1.448       .  S
C2353      C2354   1.408       .  A
C2353      C2360   1.453       .  S
C2354      C2355   1.421       .  A
C2355      C2356   1.404       .  A
C2355      C2358   1.453       .  S
C2356      C2359   1.453       .  S
C2357      N2364   1.157       .  T
C2358      N2363   1.157       .  T
C2359      N2361   1.157       .  T
C2360      N2362   1.158       .  T
C2365      C2366   1.420   1_565  A
C2365      C2370   1.406       .  A
C2366      C2367   1.436       .  A
C2366      C2371   1.446       .  S
C2367      C2368   1.431       .  A
C2367      C2374   1.438       .  S
C2368      C2369   1.419       .  A
C2369      C2370   1.380   1_545  A
C2369      C2372   1.445   1_545  S
C2370      C2373   1.442       .  S
C2371      N2378   1.157       .  T
C2372      N2377   1.158       .  T
C2373      N2375   1.158       .  T
C2374      N2376   1.157       .  T
C2379      C2380   1.422       .  A
C2379      C2384   1.411       .  A
C2380      C2381   1.426       .  A
C2380      C2385   1.450       .  S
C2381      C2382   1.419       .  A
C2381      C2388   1.437       .  S
C2382      C2383   1.429       .  A
C2383      C2384   1.417       .  A
C2383      C2386   1.446       .  S
C2384      C2387   1.448       .  S
C2385      N2392   1.157       .  T
C2386      N2391   1.157       .  T
C2387      N2389   1.156       .  T
C2388      N2390   1.153       .  T
C2393      C2394   1.413       .  A
C2393      C2398   1.424       .  A
C2394      C2395   1.412       .  A
C2394      C2399   1.456       .  S
C2395      C2396   1.441       .  A
C2395      C2402   1.451       .  S
C2396      C2397   1.426       .  A
C2397      C2398   1.431       .  A
C2397      C2400   1.446       .  S
C2398      C2401   1.445       .  S
C2399      N2406   1.158       .  T
C2400      N2405   1.157       .  T
C2401      N2403   1.157       .  T
C2402      N2404   1.157       .  T
C2407      C2408   1.414       .  A
C2407      C2412   1.418   1_565  A
C2408      C2409   1.429   1_565  A
C2408      C2413   1.453       .  S
C2409      C2410   1.430       .  A
C2409      C2416   1.441       .  S
C2410      C2411   1.431       .  A
C2411      C2412   1.432       .  A
C2411      C2414   1.445       .  S
C2412      C2415   1.452       .  S
C2413      N2420   1.157       .  T
C2414      N2419   1.157       .  T
C2415      N2417   1.157       .  T
C2416      N2418   1.156   1_545  T
C2421      C2422   1.426       .  A
C2421      C2426   1.412       .  A
C2422      C2423   1.436       .  A
C2422      C2427   1.448       .  S
C2423      C2424   1.427       .  A
C2423      C2430   1.446       .  S
C2424      C2425   1.421       .  A
C2425      C2426   1.405       .  A
C2425      C2428   1.445       .  S
C2426      C2429   1.449       .  S
C2427      N2434   1.157       .  T
C2428      N2433   1.157       .  T
C2429      N2431   1.158       .  T
C2430      N2432   1.157       .  T
C2435      C2436   1.416   1_655  A
C2435      C2440   1.414       .  A
C2436      C2437   1.434       .  A
C2436      C2441   1.441       .  S
C2437      C2438   1.420       .  A
C2437      C2444   1.446       .  S
C2438      C2439   1.403       .  A
C2439      C2440   1.388   1_455  A
C2439      C2442   1.445       .  S
C2440      C2443   1.439       .  S
C2441      N2448   1.156       .  T
C2442      N2447   1.157   1_455  T
C2443      N2445   1.156       .  T
C2444      N2446   1.157       .  T
C2449      C2450   1.421       .  A
C2449      C2454   1.436   1_655  A
C2450      C2451   1.402   1_655  A
C2450      C2455   1.441       .  S
C2451      C2452   1.408       .  A
C2451      C2458   1.444   1_455  S
C2452      C2453   1.427       .  A
C2453      C2454   1.447       .  A
C2453      C2456   1.445       .  S
C2454      C2457   1.445       .  S
C2455      N2462   1.156       .  T
C2456      N2461   1.157       .  T
C2457      N2459   1.157       .  T
C2458      N2460   1.156       .  T
C2463      C2464   1.430       .  A
C2463      C2468   1.419       .  A
C2464      C2465   1.438       .  A
C2464      C2469   1.448       .  S
C2465      C2466   1.422       .  A
C2465      C2472   1.447       .  S
C2466      C2467   1.410       .  A
C2467      C2468   1.403       .  A
C2467      C2470   1.446       .  S
C2468      C2471   1.443       .  S
C2469      N2476   1.157       .  T
C2470      N2475   1.157       .  T
C2471      N2473   1.158       .  T
C2472      N2474   1.157       .  T
C2477      C2478   1.417       .  A
C2477      C2482   1.428       .  A
C2478      C2479   1.425       .  A
C2478      C2483   1.453       .  S
C2479      C2480   1.426       .  A
C2479      C2486   1.440       .  S
C2480      C2481   1.415       .  A
C2481      C2482   1.422       .  A
C2481      C2484   1.448       .  S
C2482      C2485   1.443       .  S
C2483      N2490   1.157       .  T
C2484      N2489   1.157       .  T
C2485      N2487   1.157       .  T
C2486      N2488   1.156       .  T
C2491      C2492   1.439       .  A
C2491      C2496   1.446       .  A
C2492      C2493   1.441       .  A
C2492      C2497   1.442       .  S
C2493      C2494   1.418   1_545  A
C2493      C2500   1.450       .  S
C2494      C2495   1.407       .  A
C2495      C2496   1.415   1_565  A
C2495      C2498   1.457       .  S
C2496      C2499   1.452       .  S
C2497      N2504   1.157       .  T
C2498      N2503   1.157       .  T
C2499      N2501   1.158       .  T
C2500      N2502   1.157       .  T
C2505      C2506   1.416       .  A
C2505      C2510   1.414       .  A
C2506      C2507   1.435   1_545  A
C2506      C2511   1.449       .  S
C2507      C2508   1.435       .  A
C2507      C2514   1.447       .  S
C2508      C2509   1.423   1_565  A
C2509      C2510   1.421       .  A
C2509      C2512   1.443       .  S
C2510      C2513   1.443       .  S
C2511      N2518   1.157       .  T
C2512      N2517   1.157       .  T
C2513      N2515   1.158       .  T
C2514      N2516   1.157       .  T
C2519      C2520   1.409       .  A
C2519      C2524   1.411       .  A
C2520      C2521   1.419       .  A
C2520      C2525   1.451       .  S
C2521      C2522   1.429       .  A
C2521      C2528   1.451       .  S
C2522      C2523   1.437       .  A
C2523      C2524   1.430       .  A
C2523      C2526   1.438       .  S
C2524      C2527   1.451       .  S
C2525      N2532   1.157       .  T
C2526      N2531   1.157       .  T
C2527      N2529   1.157       .  T
C2528      N2530   1.157       .  T
C2533      C2534   1.409       .  A
C2533      C2538   1.411       .  A
C2534      C2535   1.407       .  A
C2534      C2539   1.444       .  S
C2535      C2536   1.421   1_455  A
C2535      C2542   1.441       .  S
C2536      C2537   1.435   1_655  A
C2537      C2538   1.432       .  A
C2537      C2540   1.447   1_455  S
C2538      C2541   1.448       .  S
C2539      N2546   1.157       .  T
C2540      N2545   1.157       .  T
C2541      N2543   1.157       .  T
C2542      N2544   1.157       .  T
C2547      C2548   1.418       .  A
C2547      C2552   1.424       .  A
C2548      C2549   1.446       .  A
C2548      C2553   1.451       .  S
C2549      C2550   1.437       .  A
C2549      C2556   1.433       .  S
C2550      C2551   1.428       .  A
C2551      C2552   1.425       .  A
C2551      C2554   1.451       .  S
C2552      C2555   1.451       .  S
C2553      N2560   1.157       .  T
C2554      N2559   1.156       .  T
C2555      N2557   1.157       .  T
C2556      N2558   1.155       .  T
C2561      C2562   1.419       .  A
C2561      C2566   1.432       .  A
C2562      C2563   1.422       .  A
C2562      C2567   1.440       .  S
C2563      C2564   1.411       .  A
C2563      C2570   1.444       .  S
C2564      C2565   1.410       .  A
C2565      C2566   1.425       .  A
C2565      C2568   1.449       .  S
C2566      C2569   1.446       .  S
C2567      N2574   1.157       .  T
C2568      N2573   1.157       .  T
C2569      N2571   1.157       .  T
C2570      N2572   1.158       .  T
C2575      C2576   1.430       .  A
C2575      C2580   1.435       .  A
C2576      C2577   1.437       .  A
C2576      C2581   1.440       .  S
C2577      C2578   1.419   1_455  A
C2577      C2584   1.446       .  S
C2578      C2579   1.412       .  A
C2579      C2580   1.412   1_655  A
C2579      C2582   1.450       .  S
C2580      C2583   1.451       .  S
C2581      N2588   1.156       .  T
C2582      N2587   1.157       .  T
C2583      N2585   1.158       .  T
C2584      N2586   1.157       .  T
C2589      C2590   1.412       .  A
C2589      C2594   1.431       .  A
C2590      C2591   1.386       .  A
C2590      C2595   1.442       .  S
C2591      C2592   1.405       .  A
C2591      C2598   1.447       .  S
C2592      C2593   1.437       .  A
C2593      C2594   1.451       .  A
C2593      C2596   1.441       .  S
C2594      C2597   1.441       .  S
C2595      N2602   1.157       .  T
C2596      N2601   1.157       .  T
C2597      N2599   1.157       .  T
C2598      N2600   1.158       .  T
C2603      C2604   1.426       .  A
C2603      C2608   1.414       .  A
C2604      C2605   1.437       .  A
C2604      C2609   1.450       .  S
C2605      C2606   1.427       .  A
C2605      C2612   1.446       .  S
C2606      C2607   1.399       .  A
C2607      C2608   1.399       .  A
C2607      C2610   1.450       .  S
C2608      C2611   1.440       .  S
C2609      N2616   1.157       .  T
C2610      N2615   1.158       .  T
C2611      N2613   1.156       .  T
C2612      N2614   1.158       .  T
C2617      C2618   1.429       .  A
C2617      C2622   1.420       .  A
C2618      C2619   1.429       .  A
C2618      C2623   1.445       .  S
C2619      C2620   1.416       .  A
C2619      C2626   1.450       .  S
C2620      C2621   1.421       .  A
C2621      C2622   1.420       .  A
C2621      C2624   1.450       .  S
C2622      C2625   1.447       .  S
C2623      N2630   1.157   1_554  T
C2624      N2629   1.157       .  T
C2625      N2627   1.156       .  T
C2626      N2628   1.158       .  T
C2631      C2632   1.431       .  A
C2631      C2636   1.428       .  A
C2632      C2633   1.421       .  A
C2632      C2637   1.451       .  S
C2633      C2634   1.416       .  A
C2633      C2640   1.445       .  S
C2634      C2635   1.427       .  A
C2635      C2636   1.442       .  A
C2635      C2638   1.445       .  S
C2636      C2639   1.441       .  S
C2637      N2644   1.157       .  T
C2638      N2643   1.157       .  T
C2639      N2641   1.157       .  T
C2640      N2642   1.157       .  T
C2645      C2646   1.426       .  A
C2645      C2650   1.437       .  A
C2646      C2647   1.416       .  A
C2646      C2651   1.449       .  S
C2647      C2648   1.414       .  A
C2647      C2654   1.449       .  S
C2648      C2649   1.413       .  A
C2649      C2650   1.437       .  A
C2649      C2652   1.452       .  S
C2650      C2653   1.440       .  S
C2651      N2658   1.157       .  T
C2652      N2657   1.157       .  T
C2653      N2655   1.157       .  T
C2654      N2656   1.158       .  T
C2659      C2660   1.398       .  A
C2659      C2664   1.426       .  A
C2660      C2661   1.403       .  A
C2660      C2665   1.440       .  S
C2661      C2662   1.428       .  A
C2661      C2668   1.440       .  S
C2662      C2663   1.434       .  A
C2663      C2664   1.442       .  A
C2663      C2666   1.442       .  S
C2664      C2667   1.446       .  S
C2665      N2672   1.157       .  T
C2666      N2671   1.156       .  T
C2667      N2669   1.157       .  T
C2668      N2670   1.157   1_556  T
C2673      C2674   1.428       .  A
C2673      C2678   1.415       .  A
C2674      C2675   1.437       .  A
C2674      C2679   1.447       .  S
C2675      C2676   1.428       .  A
C2675      C2682   1.444       .  S
C2676      C2677   1.398       .  A
C2677      C2678   1.398       .  A
C2677      C2680   1.441       .  S
C2678      C2681   1.442       .  S
C2679      N2686   1.157   1_554  T
C2680      N2685   1.157       .  T
C2681      N2683   1.158       .  T
C2682      N2684   1.157       .  T
C2687      C2688   1.425       .  A
C2687      C2692   1.431       .  A
C2688      C2689   1.439       .  A
C2688      C2693   1.447       .  S
C2689      C2690   1.425       .  A
C2689      C2696   1.448       .  S
C2690      C2691   1.410       .  A
C2691      C2692   1.404       .  A
C2691      C2694   1.457       .  S
C2692      C2695   1.444       .  S
C2693      N2700   1.157       .  T
C2694      N2699   1.157       .  T
C2695      N2697   1.154   1_556  T
C2696      N2698   1.157       .  T
C2701      C2702   1.406       .  A
C2701      C2706   1.430       .  A
C2702      C2703   1.411       .  A
C2702      C2707   1.449       .  S
C2703      C2704   1.429       .  A
C2703      C2710   1.438       .  S
C2704      C2705   1.408       .  A
C2705      C2706   1.411       .  A
C2705      C2708   1.446       .  S
C2706      C2709   1.434       .  S
C2707      N2714   1.157       .  T
C2708      N2713   1.157       .  T
C2709      N2711   1.157       .  T
C2710      N2712   1.158       .  T
C2715      C2716   1.425       .  A
C2715      C2720   1.403       .  A
C2716      C2717   1.428       .  A
C2716      C2721   1.445       .  S
C2717      C2718   1.426       .  A
C2717      C2724   1.447       .  S
C2718      C2719   1.432       .  A
C2719      C2720   1.389       .  A
C2719      C2722   1.450       .  S
C2720      C2723   1.452       .  S
C2721      N2728   1.157       .  T
C2722      N2727   1.157       .  T
C2723      N2725   1.157       .  T
C2724      N2726   1.157       .  T
C2729      C2730   1.426       .  A
C2729      C2734   1.417       .  A
C2730      C2731   1.414       .  A
C2730      C2735   1.447       .  S
C2731      C2732   1.409       .  A
C2731      C2738   1.449       .  S
C2732      C2733   1.410       .  A
C2733      C2734   1.406       .  A
C2733      C2736   1.445       .  S
C2734      C2737   1.447       .  S
C2735      N2742   1.157       .  T
C2736      N2741   1.157       .  T
C2737      N2739   1.157       .  T
C2738      N2740   1.157       .  T
C2743      C2744   1.404       .  A
C2743      C2748   1.406       .  A
C2744      C2745   1.396       .  A
C2744      C2749   1.450       .  S
C2745      C2746   1.419       .  A
C2745      C2752   1.453       .  S
C2746      C2747   1.431       .  A
C2747      C2748   1.410       .  A
C2747      C2750   1.442       .  S
C2748      C2751   1.446       .  S
C2749      N2756   1.157       .  T
C2750      N2755   1.158       .  T
C2751      N2753   1.157       .  T
C2752      N2754   1.158       .  T
C2757      C2758   1.440       .  A
C2757      C2762   1.424       .  A
C2758      C2759   1.419       .  A
C2758      C2763   1.437       .  S
C2759      C2760   1.406       .  A
C2759      C2766   1.452       .  S
C2760      C2761   1.407       .  A
C2761      C2762   1.408       .  A
C2761      C2764   1.445       .  S
C2762      C2765   1.449       .  S
C2763      N2770   1.157       .  T
C2764      N2769   1.157       .  T
C2765      N2767   1.157       .  T
C2766      N2768   1.157       .  T
C2771      C2772   1.429       .  A
C2771      C2776   1.435       .  A
C2772      C2773   1.419       .  A
C2772      C2777   1.445       .  S
C2773      C2774   1.413       .  A
C2773      C2780   1.447       .  S
C2774      C2775   1.405       .  A
C2775      C2776   1.394       .  A
C2775      C2778   1.451       .  S
C2776      C2779   1.452       .  S
C2777      N2784   1.157       .  T
C2778      N2783   1.155       .  T
C2779      N2781   1.158       .  T
C2780      N2782   1.157       .  T
C2785      C2786   1.413       .  A
C2785      C2790   1.426       .  A
C2786      C2787   1.392       .  A
C2786      C2791   1.446       .  S
C2787      C2788   1.428       .  A
C2787      C2794   1.452       .  S
C2788      C2789   1.422       .  A
C2789      C2790   1.432       .  A
C2789      C2792   1.447       .  S
C2790      C2793   1.448       .  S
C2791      N2798   1.156       .  T
C2792      N2797   1.157       .  T
C2793      N2795   1.157       .  T
C2794      N2796   1.159       .  T
C2799      C2800   1.412       .  A
C2799      C2804   1.409       .  A
C2800      C2801   1.425       .  A
C2800      C2805   1.449       .  S
C2801      C2802   1.427       .  A
C2801      C2808   1.444       .  S
C2802      C2803   1.438       .  A
C2803      C2804   1.408       .  A
C2803      C2806   1.456       .  S
C2804      C2807   1.455       .  S
C2805      N2812   1.157       .  T
C2806      N2811   1.157       .  T
C2807      N2809   1.157       .  T
C2808      N2810   1.157       .  T
C2813      C2814   1.397       .  A
C2813      C2818   1.414       .  A
C2814      C2815   1.389       .  A
C2814      C2819   1.445       .  S
C2815      C2816   1.443       .  A
C2815      C2822   1.452       .  S
C2816      C2817   1.428       .  A
C2817      C2818   1.422       .  A
C2817      C2820   1.442       .  S
C2818      C2821   1.441       .  S
C2819      N2826   1.157       .  T
C2820      N2825   1.158       .  T
C2821      N2823   1.156       .  T
C2822      N2824   1.158       .  T
C2827      C2828   1.411       .  A
C2827      C2832   1.451       .  A
C2828      C2829   1.382       .  A
C2828      C2833   1.444       .  S
C2829      C2830   1.416       .  A
C2829      C2836   1.440       .  S
C2830      C2831   1.410       .  A
C2831      C2832   1.429       .  A
C2831      C2834   1.450       .  S
C2832      C2835   1.432       .  S
C2833      N2840   1.158       .  T
C2834      N2839   1.157       .  T
C2835      N2837   1.156       .  T
C2836      N2838   1.156       .  T
C2841      C2842   1.416       .  A
C2841      C2846   1.399       .  A
C2842      C2843   1.408       .  A
C2842      C2847   1.444       .  S
C2843      C2844   1.413       .  A
C2843      C2850   1.451       .  S
C2844      C2845   1.423       .  A
C2845      C2846   1.409       .  A
C2845      C2848   1.431       .  S
C2846      C2849   1.458       .  S
C2847      N2854   1.156       .  T
C2848      N2853   1.154       .  T
C2849      N2851   1.158       .  T
C2850      N2852   1.157       .  T
C2855      C2856   1.410       .  A
C2855      C2860   1.431       .  A
C2856      C2857   1.394       .  A
C2856      C2861   1.438       .  S
C2857      C2858   1.407       .  A
C2857      C2864   1.439       .  S
C2858      C2859   1.413       .  A
C2859      C2860   1.414       .  A
C2859      C2862   1.447       .  S
C2860      C2863   1.439       .  S
C2861      N2868   1.157       .  T
C2862      N2867   1.157       .  T
C2863      N2865   1.158       .  T
C2864      N2866   1.158       .  T
C2869      C2870   1.430       .  A
C2869      C2874   1.426       .  A
C2870      C2871   1.422       .  A
C2870      C2875   1.444       .  S
C2871      C2872   1.413       .  A
C2871      C2878   1.451       .  S
C2872      C2873   1.416       .  A
C2873      C2874   1.417       .  A
C2873      C2876   1.446       .  S
C2874      C2877   1.451       .  S
C2875      N2882   1.158       .  T
C2876      N2881   1.157       .  T
C2877      N2879   1.157       .  T
C2878      N2880   1.158       .  T
C2883      C2884   1.415       .  A
C2883      C2888   1.423       .  A
C2884      C2885   1.412       .  A
C2884      C2889   1.445       .  S
C2885      C2886   1.413       .  A
C2885      C2892   1.454       .  S
C2886      C2887   1.423       .  A
C2887      C2888   1.433       .  A
C2887      C2890   1.447       .  S
C2888      C2891   1.446       .  S
C2889      N2896   1.158       .  T
C2890      N2895   1.157       .  T
C2891      N2893   1.157       .  T
C2892      N2894   1.157       .  T
C2897      C2898   1.417       .  A
C2897      C2902   1.412       .  A
C2898      C2899   1.414       .  A
C2898      C2903   1.450       .  S
C2899      C2900   1.415       .  A
C2899      C2906   1.440       .  S
C2900      C2901   1.417       .  A
C2901      C2902   1.403       .  A
C2901      C2904   1.445       .  S
C2902      C2905   1.449       .  S
C2903      N2910   1.157       .  T
C2904      N2909   1.157       .  T
C2905      N2907   1.155       .  T
C2906      N2908   1.155       .  T
C2911      C2912   1.429       .  A
C2911      C2916   1.416       .  A
C2912      C2913   1.410       .  A
C2912      C2917   1.450       .  S
C2913      C2914   1.419       .  A
C2913      C2920   1.448       .  S
C2914      C2915   1.417       .  A
C2915      C2916   1.412       .  A
C2915      C2918   1.437       .  S
C2916      C2919   1.439       .  S
C2917      N2924   1.158       .  T
C2918      N2923   1.156       .  T
C2919      N2921   1.156       .  T
C2920      N2922   1.156       .  T
C2925      C2926   1.412       .  A
C2925      C2930   1.421       .  A
C2926      C2927   1.405       .  A
C2926      C2931   1.451       .  S
C2927      C2928   1.442       .  A
C2927      C2934   1.454       .  S
C2928      C2929   1.417       .  A
C2929      C2930   1.412       .  A
C2929      C2932   1.444       .  S
C2930      C2933   1.439       .  S
C2931      N2938   1.158       .  T
C2932      N2937   1.157       .  T
C2933      N2935   1.157       .  T
C2934      N2936   1.158       .  T
C2939      C2940   1.416       .  A
C2939      C2944   1.400       .  A
C2940      C2941   1.417       .  A
C2940      C2945   1.447       .  S
C2941      C2942   1.422       .  A
C2941      C2948   1.446       .  S
C2942      C2943   1.427       .  A
C2943      C2944   1.407       .  A
C2943      C2946   1.438       .  S
C2944      C2947   1.451       .  S
C2945      N2952   1.155       .  T
C2946      N2951   1.157       .  T
C2947      N2949   1.157       .  T
C2948      N2950   1.157       .  T
C2953      C2954   1.422       .  A
C2953      C2958   1.416       .  A
C2954      C2955   1.406       .  A
C2954      C2959   1.444       .  S
C2955      C2956   1.401       .  A
C2955      C2962   1.440       .  S
C2956      C2957   1.421       .  A
C2957      C2958   1.425       .  A
C2957      C2960   1.447       .  S
C2958      C2961   1.444       .  S
C2959      N2966   1.156       .  T
C2960      N2965   1.158       .  T
C2961      N2963   1.157       .  T
C2962      N2964   1.157       .  T
C2967      C2968   1.398       .  A
C2967      C2972   1.421       .  A
C2968      C2969   1.392       .  A
C2968      C2973   1.441       .  S
C2969      C2970   1.418       .  A
C2969      C2976   1.440       .  S
C2970      C2971   1.428       .  A
C2971      C2972   1.425       .  A
C2971      C2974   1.440       .  S
C2972      C2975   1.441       .  S
C2973      N2980   1.156       .  T
C2974      N2979   1.157       .  T
C2975      N2977   1.158       .  T
C2976      N2978   1.156       .  T
C2981      C2982   1.406       .  A
C2981      C2986   1.410       .  A
C2982      C2983   1.409       .  A
C2982      C2987   1.455       .  S
C2983      C2984   1.429       .  A
C2983      C2990   1.442       .  S
C2984      C2985   1.421       .  A
C2985      C2986   1.412       .  A
C2985      C2988   1.446       .  S
C2986      C2989   1.446       .  S
C2987      N2994   1.157       .  T
C2988      N2993   1.157       .  T
C2989      N2991   1.156       .  T
C2990      N2992   1.156       .  T
C2995      C2996   1.402       .  A
C2995      C3000   1.418       .  A
C2996      C2997   1.411       .  A
C2996      C3001   1.460       .  S
C2997      C2998   1.453       .  A
C2997      C3004   1.453       .  S
C2998      C2999   1.417       .  A
C2999      C3000   1.425       .  A
C2999      C3002   1.443       .  S
C3000      C3003   1.443       .  S
C3001      N3008   1.158       .  T
C3002      N3007   1.157       .  T
C3003      N3005   1.157       .  T
C3004      N3006   1.159       .  T
C3009      C3010   1.410       .  A
C3009      C3014   1.412       .  A
C3010      C3011   1.414       .  A
C3010      C3015   1.444       .  S
C3011      C3012   1.436       .  A
C3011      C3018   1.448       .  S
C3012      C3013   1.422       .  A
C3013      C3014   1.419       .  A
C3013      C3016   1.442       .  S
C3014      C3017   1.445       .  S
C3015      N3022   1.156       .  T
C3016      N3021   1.157       .  T
C3017      N3019   1.157       .  T
C3018      N3020   1.159       .  T
C3023      C3024   1.419       .  A
C3023      C3028   1.409       .  A
C3024      C3025   1.430       .  A
C3024      C3029   1.447       .  S
C3025      C3026   1.433       .  A
C3025      C3032   1.445       .  S
C3026      C3027   1.439       .  A
C3027      C3028   1.395       .  A
C3027      C3030   1.452       .  S
C3028      C3031   1.452       .  S
C3029      N3036   1.157       .  T
C3030      N3035   1.158       .  T
C3031      N3033   1.158       .  T
C3032      N3034   1.158       .  T
C3037      C3038   1.423       .  A
C3037      C3042   1.421       .  A
C3038      C3039   1.419       .  A
C3038      C3043   1.450       .  S
C3039      C3040   1.421       .  A
C3039      C3046   1.448       .  S
C3040      C3041   1.414       .  A
C3041      C3042   1.423       .  A
C3041      C3044   1.447       .  S
C3042      C3045   1.443       .  S
C3043      N3050   1.157       .  T
C3044      N3049   1.157       .  T
C3045      N3047   1.158       .  T
C3046      N3048   1.157       .  T
C3051      C3052   1.414   1_565  A
C3051      C3056   1.434   1_565  A
C3052      C3053   1.418       .  A
C3052      C3057   1.449       .  S
C3053      C3054   1.425       .  A
C3053      C3060   1.444       .  S
C3054      C3055   1.411       .  A
C3055      C3056   1.426       .  A
C3055      C3058   1.449       .  S
C3056      C3059   1.445   1_545  S
C3057      N3064   1.157       .  T
C3058      N3063   1.157       .  T
C3059      N3061   1.157       .  T
C3060      N3062   1.157       .  T
C3065      C3066   1.426       .  A
C3065      C3070   1.440   1_565  A
C3066      C3067   1.389   1_565  A
C3066      C3071   1.442       .  S
C3067      C3068   1.388       .  A
C3067      C3074   1.443   1_545  S
C3068      C3069   1.418       .  A
C3069      C3070   1.437       .  A
C3069      C3072   1.445       .  S
C3070      C3073   1.443       .  S
C3071      N3078   1.158       .  T
C3072      N3077   1.157       .  T
C3073      N3075   1.157       .  T
C3074      N3076   1.157       .  T
C3079      C3080   1.416       .  A
C3079      C3084   1.402       .  A
C3080      C3081   1.423       .  A
C3080      C3085   1.445       .  S
C3081      C3082   1.430       .  A
C3081      C3088   1.443       .  S
C3082      C3083   1.426       .  A
C3083      C3084   1.398       .  A
C3083      C3086   1.449       .  S
C3084      C3087   1.447       .  S
C3085      N3092   1.157       .  T
C3086      N3091   1.157       .  T
C3087      N3089   1.158       .  T
C3088      N3090   1.158       .  T
C3093      C3094   1.417   1_655  A
C3093      C3098   1.413   1_655  A
C3094      C3095   1.425       .  A
C3094      C3099   1.451       .  S
C3095      C3096   1.429       .  A
C3095      C3102   1.447       .  S
C3096      C3097   1.423       .  A
C3097      C3098   1.417       .  A
C3097      C3100   1.443       .  S
C3098      C3101   1.451   1_455  S
C3099      N3106   1.157       .  T
C3100      N3105   1.158       .  T
C3101      N3103   1.157       .  T
C3102      N3104   1.157       .  T
C3107      C3108   1.423       .  A
C3107      C3112   1.423       .  A
C3108      C3109   1.425       .  A
C3108      C3113   1.441       .  S
C3109      C3110   1.415       .  A
C3109      C3116   1.445       .  S
C3110      C3111   1.416       .  A
C3111      C3112   1.414       .  A
C3111      C3114   1.444       .  S
C3112      C3115   1.449       .  S
C3113      N3120   1.156       .  T
C3114      N3119   1.157       .  T
C3115      N3117   1.157       .  T
C3116      N3118   1.157       .  T
C3121      C3122   1.431   1_655  A
C3121      C3126   1.422       .  A
C3122      C3123   1.439       .  A
C3122      C3127   1.444       .  S
C3123      C3124   1.425       .  A
C3123      C3130   1.444       .  S
C3124      C3125   1.422       .  A
C3125      C3126   1.415   1_455  A
C3125      C3128   1.451       .  S
C3126      C3129   1.448       .  S
C3127      N3134   1.157       .  T
C3128      N3133   1.157   1_455  T
C3129      N3131   1.156       .  T
C3130      N3132   1.157       .  T
C3135      C3136   1.438       .  A
C3135      C3140   1.427       .  A
C3136      C3137   1.450       .  A
C3136      C3141   1.444       .  S
C3137      C3138   1.428       .  A
C3137      C3144   1.443       .  S
C3138      C3139   1.405       .  A
C3139      C3140   1.406       .  A
C3139      C3142   1.439       .  S
C3140      C3143   1.447       .  S
C3141      N3148   1.157       .  T
C3142      N3147   1.155       .  T
C3143      N3145   1.158       .  T
C3144      N3146   1.157       .  T
C3149      C3150   1.412       .  A
C3149      C3154   1.434       .  A
C3150      C3151   1.397       .  A
C3150      C3155   1.451       .  S
C3151      C3152   1.421       .  A
C3151      C3158   1.446       .  S
C3152      C3153   1.423       .  A
C3153      C3154   1.438       .  A
C3153      C3156   1.446       .  S
C3154      C3157   1.440       .  S
C3155      N3162   1.157   1_556  T
C3156      N3161   1.157       .  T
C3157      N3159   1.156       .  T
C3158      N3160   1.157       .  T
C3163      C3164   1.412       .  A
C3163      C3168   1.412       .  A
C3164      C3165   1.404       .  A
C3164      C3169   1.447       .  S
C3165      C3166   1.419       .  A
C3165      C3172   1.451       .  S
C3166      C3167   1.438       .  A
C3167      C3168   1.427       .  A
C3167      C3170   1.441       .  S
C3168      C3171   1.447       .  S
C3169      N3176   1.157       .  T
C3170      N3175   1.158       .  T
C3171      N3173   1.157       .  T
C3172      N3174   1.157       .  T
C3177      C3178   1.429       .  A
C3177      C3182   1.424       .  A
C3178      C3179   1.406       .  A
C3178      C3183   1.437       .  S
C3179      C3180   1.399       .  A
C3179      C3186   1.445       .  S
C3180      C3181   1.422       .  A
C3181      C3182   1.427       .  A
C3181      C3184   1.444       .  S
C3182      C3185   1.448       .  S
C3183      N3190   1.157       .  T
C3184      N3189   1.157       .  T
C3185      N3187   1.157   1_554  T
C3186      N3188   1.157       .  T
C3191      C3192   1.404       .  A
C3191      C3196   1.421       .  A
C3192      C3193   1.425       .  A
C3192      C3197   1.453       .  S
C3193      C3194   1.452       .  A
C3193      C3200   1.444       .  S
C3194      C3195   1.420       .  A
C3195      C3196   1.420       .  A
C3195      C3198   1.442       .  S
C3196      C3199   1.445       .  S
C3197      N3204   1.157       .  T
C3198      N3203   1.158       .  T
C3199      N3201   1.157       .  T
C3200      N3202   1.158       .  T
C3205      C3206   1.411       .  A
C3205      C3210   1.437       .  A
C3206      C3207   1.388       .  A
C3206      C3211   1.451       .  S
C3207      C3208   1.419       .  A
C3207      C3214   1.452       .  S
C3208      C3209   1.416       .  A
C3209      C3210   1.444       .  A
C3209      C3212   1.446       .  S
C3210      C3213   1.445       .  S
C3211      N3218   1.158       .  T
C3212      N3217   1.158       .  T
C3213      N3215   1.157       .  T
C3214      N3216   1.157       .  T
C3219      C3220   1.422       .  A
C3219      C3224   1.398       .  A
C3220      C3221   1.442       .  A
C3220      C3225   1.443       .  S
C3221      C3222   1.435       .  A
C3221      C3228   1.444       .  S
C3222      C3223   1.418       .  A
C3223      C3224   1.391       .  A
C3223      C3226   1.444       .  S
C3224      C3227   1.434       .  S
C3225      N3232   1.157       .  T
C3226      N3231   1.157       .  T
C3227      N3229   1.154       .  T
C3228      N3230   1.157       .  T
C3233      C3234   1.419       .  A
C3233      C3238   1.419       .  A
C3234      C3235   1.415       .  A
C3234      C3239   1.443       .  S
C3235      C3236   1.417       .  A
C3235      C3242   1.450       .  S
C3236      C3237   1.418       .  A
C3237      C3238   1.421       .  A
C3237      C3240   1.451       .  S
C3238      C3241   1.444       .  S
C3239      N3246   1.157       .  T
C3240      N3245   1.157       .  T
C3241      N3243   1.156       .  T
C3242      N3244   1.157       .  T
C3247      C3248   1.421       .  A
C3247      C3252   1.416       .  A
C3248      C3249   1.427       .  A
C3248      C3253   1.450       .  S
C3249      C3250   1.425       .  A
C3249      C3256   1.450       .  S
C3250      C3251   1.412       .  A
C3251      C3252   1.404       .  A
C3251      C3254   1.446       .  S
C3252      C3255   1.447       .  S
C3253      N3260   1.157       .  T
C3254      N3259   1.157       .  T
C3255      N3257   1.157       .  T
C3256      N3258   1.158       .  T
C3261      C3262   1.409       .  A
C3261      C3266   1.426       .  A
C3262      C3263   1.391       .  A
C3262      C3267   1.436       .  S
C3263      C3264   1.396       .  A
C3263      C3270   1.436       .  S
C3264      C3265   1.412       .  A
C3265      C3266   1.418       .  A
C3265      C3268   1.443       .  S
C3266      C3269   1.442       .  S
C3267      N3274   1.155       .  T
C3268      N3273   1.157       .  T
C3269      N3271   1.157       .  T
C3270      N3272   1.156       .  T
C3275      C3276   1.416       .  A
C3275      C3280   1.402       .  A
C3276      C3277   1.408       .  A
C3276      C3281   1.449       .  S
C3277      C3278   1.425       .  A
C3277      C3284   1.450       .  S
C3278      C3279   1.431       .  A
C3279      C3280   1.404       .  A
C3279      C3282   1.437       .  S
C3280      C3283   1.445       .  S
C3281      N3288   1.158       .  T
C3282      N3287   1.156       .  T
C3283      N3285   1.157       .  T
C3284      N3286   1.157       .  T
C3289      C3290   1.420       .  A
C3289      C3294   1.406       .  A
C3290      C3291   1.429       .  A
C3290      C3295   1.446       .  S
C3291      C3292   1.423       .  A
C3291      C3298   1.448       .  S
C3292      C3293   1.415       .  A
C3293      C3294   1.391       .  A
C3293      C3296   1.445       .  S
C3294      C3297   1.446       .  S
C3295      N3302   1.157       .  T
C3296      N3301   1.158       .  T
C3297      N3299   1.157       .  T
C3298      N3300   1.157       .  T
C3303      C3304   1.412       .  A
C3303      C3308   1.425       .  A
C3304      C3305   1.416       .  A
C3304      C3309   1.453       .  S
C3305      C3306   1.429       .  A
C3305      C3312   1.450       .  S
C3306      C3307   1.418       .  A
C3307      C3308   1.423       .  A
C3307      C3310   1.450       .  S
C3308      C3311   1.446       .  S
C3309      N3316   1.157       .  T
C3310      N3315   1.158       .  T
C3311      N3313   1.157       .  T
C3312      N3314   1.157       .  T
C3317      C3318   1.423       .  A
C3317      C3322   1.420       .  A
C3318      C3319   1.392       .  A
C3318      C3323   1.440       .  S
C3319      C3320   1.391       .  A
C3319      C3326   1.456       .  S
C3320      C3321   1.425       .  A
C3321      C3322   1.435       .  A
C3321      C3324   1.441       .  S
C3322      C3325   1.449       .  S
C3323      N3330   1.154       .  T
C3324      N3329   1.156       .  T
C3325      N3327   1.157       .  T
C3326      N3328   1.158       .  T
C3331      C3332   1.413       .  A
C3331      C3336   1.428       .  A
C3332      C3333   1.423       .  A
C3332      C3337   1.442       .  S
C3333      C3334   1.438       .  A
C3333      C3340   1.452       .  S
C3334      C3335   1.415       .  A
C3335      C3336   1.423       .  A
C3335      C3338   1.444       .  S
C3336      C3339   1.439       .  S
C3337      N3344   1.155       .  T
C3338      N3343   1.157       .  T
C3339      N3341   1.157       .  T
C3340      N3342   1.158       .  T
C3345      C3346   1.410       .  A
C3345      C3350   1.426       .  A
C3346      C3347   1.405       .  A
C3346      C3351   1.442       .  S
C3347      C3348   1.418       .  A
C3347      C3354   1.442       .  S
C3348      C3349   1.411       .  A
C3349      C3350   1.413       .  A
C3349      C3352   1.453       .  S
C3350      C3353   1.437       .  S
C3351      N3358   1.157       .  T
C3352      N3357   1.157       .  T
C3353      N3355   1.156       .  T
C3354      N3356   1.156       .  T
C3359      C3360   1.386       .  A
C3359      C3364   1.412       .  A
C3360      C3361   1.374       .  A
C3360      C3365   1.447       .  S
C3361      C3362   1.399       .  A
C3361      C3368   1.444       .  S
C3362      C3363   1.443       .  A
C3363      C3364   1.433       .  A
C3363      C3366   1.433       .  S
C3364      C3367   1.442       .  S
C3365      N3372   1.157       .  T
C3366      N3371   1.156       .  T
C3367      N3369   1.157       .  T
C3368      N3370   1.158       .  T
