geometry optimzed in LAMMPS
_audit_creation_date              2020-11-30 
_audit_creation_method            'lammps2cif' 
_symmetry_space_group_name_H-M    'P1' 
_symmetry_Int_Tables_number       1 
_symmetry_cell_setting            triclinic 
loop_ 
_symmetry_equiv_pos_as_xyz 
  x,y,z 
_cell_length_a                    58.28881088 
_cell_length_b                    58.20263969914397 
_cell_length_c                    58.2843512368691 
_cell_angle_alpha                 90.00738189941539 
_cell_angle_beta                  89.823444524191 
_cell_angle_gamma                 89.68789892313268 
loop_ 
_atom_site_label 
_atom_site_type_symbol 
_atom_site_fract_x 
_atom_site_fract_y 
_atom_site_fract_z 
_atom_site_charge 
C1          C  0.35777460  0.63170404  0.13977254    -0.01500
C2          C  0.65454558  0.34067481  0.13957450    -0.01500
C3          C  0.64828430  0.64430103  0.13867782    -0.01500
C4          C  0.35133363  0.34903422  0.13710906    -0.01500
O5          O  0.48250998  0.46646382  0.20687526    -0.70800
O6          O  0.53005061  0.51176580  0.20433444    -0.71000
O7          O  0.48405969  0.51284720  0.20580180    -0.70800
O8          O  0.52890898  0.46505782  0.20598017    -0.70900
O9          O  0.52855992  0.46455937  0.16869671    -0.70800
O10         O  0.48323638  0.51178411  0.16855221    -0.70800
O11         O  0.52883433  0.51032836  0.16713264    -0.70800
O12         O  0.48257446  0.46531049  0.16960799    -0.71000
V13         V  0.50638555  0.48896237  0.20507819     1.35200
V14         V  0.50571368  0.48796416  0.16928547     1.35200
C15         C  0.47471073  0.45803028  0.18843414     0.78500
C16         C  0.53721323  0.51896883  0.18505661     0.78500
C17         C  0.47652429  0.52088899  0.18714375     0.78400
C18         C  0.53663169  0.45695116  0.18734338     0.78400
C19         C  0.36174624  0.35109796  0.84301498    -0.01500
C20         C  0.65729663  0.34905143  0.84811142    -0.01500
C21         C  0.65348722  0.64415580  0.85183138    -0.01500
C22         C  0.36268989  0.63995647  0.84532636    -0.01500
O23         O  0.28349266  0.51495530  0.96455329    -0.70800
O24         O  0.28039922  0.46887374  0.01172669    -0.71000
O25         O  0.28325110  0.51515956  0.01106846    -0.70800
O26         O  0.28023821  0.46854492  0.96506921    -0.70900
O27         O  0.31746714  0.46610148  0.96518593    -0.70800
O28         O  0.32047607  0.51277454  0.01030085    -0.70800
O29         O  0.31757630  0.46675334  0.01119978    -0.70800
O30         O  0.32058355  0.51147106  0.96455564    -0.71000
V31         V  0.28247869  0.49181184  0.98811302     1.35200
V32         V  0.31820760  0.48928880  0.98792204     1.35200
C33         C  0.30281806  0.52074563  0.95633661     0.78500
C34         C  0.29873638  0.45999687  0.01947801     0.78500
C35         C  0.30247875  0.52210993  0.01815837     0.78400
C36         C  0.29848929  0.45985365  0.95695816     0.78400
O37         O  0.52920794  0.67245392  0.01465191    -0.70800
O38         O  0.48841736  0.66956890  0.96440480    -0.71000
O39         O  0.53393711  0.67457825  0.96917045    -0.70800
O40         O  0.48386217  0.66726690  0.01011857    -0.70900
O41         O  0.48113662  0.70421849  0.01400852    -0.70800
O42         O  0.52755915  0.71134698  0.96786053    -0.70800
O43         O  0.48155102  0.70605932  0.96751868    -0.70800
O44         O  0.52730007  0.70971625  0.01406716    -0.71000
V45         V  0.50873384  0.67170477  0.98958929     1.35200
V46         V  0.50442023  0.70721250  0.99085881     1.35200
C47         C  0.53584113  0.69154215  0.02245234     0.78500
C48         C  0.47757892  0.68713944  0.95758583     0.78500
C49         C  0.53919996  0.69408417  0.96130761     0.78400
C50         C  0.47431305  0.68433650  0.01967796     0.78400
O51         O  0.69102350  0.51933911  0.02600139    -0.70800
O52         O  0.68579662  0.47070419  0.98285182    -0.71000
O53         O  0.69098061  0.47333341  0.02855038    -0.70800
O54         O  0.68563417  0.51674434  0.98032721    -0.70900
O55         O  0.72264095  0.51874879  0.97752549    -0.70800
O56         O  0.72768531  0.47069154  0.02244335    -0.70800
O57         O  0.72241728  0.47238123  0.97614858    -0.70800
O58         O  0.72820112  0.51746475  0.02349802    -0.71000
V59         V  0.68911452  0.49503981  0.00434273     1.35200
V60         V  0.72461466  0.49478475  0.00003146     1.35200
C61         C  0.71044506  0.52649672  0.03230612     0.78500
C62         C  0.70307655  0.46368550  0.97163506     0.78500
C63         C  0.71003528  0.46419037  0.03343523     0.78400
C64         C  0.70306047  0.52556234  0.97088263     0.78400
O65         O  0.52970252  0.28401208  0.97110290    -0.70800
O66         O  0.48227295  0.28084944  0.01668127    -0.71000
O67         O  0.48326176  0.28390195  0.97034795    -0.70800
O68         O  0.52865683  0.28056602  0.01728360    -0.70900
O69         O  0.52680310  0.31760166  0.02118979    -0.70800
O70         O  0.48487323  0.32117996  0.97144964    -0.70800
O71         O  0.48117436  0.31810872  0.01751268    -0.70800
O72         O  0.53047087  0.32097392  0.97558982    -0.71000
V73         V  0.50592753  0.28297748  0.99388984     1.35200
V74         V  0.50576809  0.31870009  0.99637855     1.35200
C75         C  0.53853196  0.30324002  0.96601912     0.78500
C76         C  0.47373482  0.29916204  0.02489821     0.78500
C77         C  0.47692407  0.30314294  0.96243128     0.78400
C78         C  0.53531228  0.29855381  0.02742758     0.78400
O79         O  0.48763326  0.46706391  0.81020977    -0.70800
O80         O  0.53021486  0.51554492  0.81535282    -0.71000
O81         O  0.48386042  0.51290891  0.81172080    -0.70800
O82         O  0.53300206  0.46957402  0.81335674    -0.70900
O83         O  0.53570514  0.47094675  0.77622831    -0.70800
O84         O  0.48708852  0.51536325  0.77466670    -0.70800
O85         O  0.53345752  0.51740523  0.77826471    -0.70800
O86         O  0.48942800  0.46889712  0.77303297    -0.71000
V87         V  0.50873228  0.49147201  0.81188036     1.35200
V88         V  0.51136991  0.49316712  0.77621620     1.35200
C89         C  0.48147663  0.45942543  0.79095959     0.78500
C90         C  0.53967036  0.52430551  0.79791597     0.78500
C91         C  0.47675631  0.52116964  0.79291179     0.78400
C92         C  0.54237727  0.46241114  0.79507599     0.78400
C93         C  0.65264819  0.14654536  0.63993872    -0.01500
C94         C  0.65672320  0.13420197  0.34886765    -0.01500
C95         C  0.35658390  0.14201816  0.63833857    -0.01500
C96         C  0.36054284  0.14716282  0.34796140    -0.01500
O97         O  0.48492219  0.17123631  0.46564444    -0.70800
O98         O  0.53230076  0.16905105  0.51025838    -0.71000
O99         O  0.48654958  0.16769000  0.51162990    -0.70800
O100        O  0.53055790  0.17238735  0.46411310    -0.70900
O101        O  0.53032466  0.20959715  0.46725257    -0.70800
O102        O  0.48475294  0.20482281  0.51432859    -0.70800
O103        O  0.53092910  0.20613987  0.51351783    -0.70800
O104        O  0.48393203  0.20843025  0.46813696    -0.71000
V105        V  0.50858376  0.17086005  0.48797807     1.35200
V106        V  0.50751332  0.20657351  0.49073121     1.35200
C107        C  0.47651775  0.19017518  0.45902738     0.78500
C108        C  0.53938841  0.18712416  0.51994189     0.78500
C109        C  0.47812017  0.18529985  0.52120499     0.78400
C110        C  0.53785394  0.19164604  0.45744659     0.78400
C111        C  0.65019445  0.84406817  0.35394071    -0.01500
C112        C  0.36078811  0.83996207  0.35557427    -0.01500
C113        C  0.36026224  0.85403462  0.64662704    -0.01500
C114        C  0.65104150  0.84824309  0.64443273    -0.01500
O115        O  0.72648340  0.01597488  0.52223301    -0.70800
O116        O  0.72244281  0.96705568  0.47850996    -0.71000
O117        O  0.72539177  0.01353327  0.47590714    -0.70800
O118        O  0.72350029  0.96945486  0.52499338    -0.70900
O119        O  0.68673684  0.97465202  0.52735202    -0.70800
O120        O  0.68823015  0.01315373  0.47547815    -0.70800
O121        O  0.68538673  0.96789453  0.48223517    -0.70800
O122        O  0.68945250  0.02004856  0.52032827    -0.71000
V123        V  0.72388495  0.99149558  0.50045367     1.35200
V124        V  0.68824272  0.99386902  0.50134393     1.35200
C125        C  0.70848137  0.02691571  0.52784501     0.78500
C126        C  0.70302073  0.95888526  0.47332151     0.78500
C127        C  0.70677146  0.02071035  0.46719611     0.78400
C128        C  0.70459195  0.96489896  0.53483337     0.78400
O129        O  0.52783435  0.97420462  0.71273233    -0.70800
O130        O  0.48448727  0.02375539  0.71165979    -0.71000
O131        O  0.48168135  0.97744893  0.71231415    -0.70800
O132        O  0.53089527  0.02079045  0.71196623    -0.70900
O133        O  0.53343022  0.01664974  0.67505216    -0.70800
O134        O  0.47968853  0.98033882  0.67526465    -0.70800
O135        O  0.48836860  0.02547978  0.67462473    -0.70800
O136        O  0.52457414  0.97137324  0.67573714    -0.71000
V137        V  0.50626178  0.99907528  0.71158636     1.35200
V138        V  0.50655342  0.99849888  0.67589467     1.35200
C139        C  0.53263872  0.96364102  0.69431222     0.78500
C140        C  0.47944846  0.03332389  0.69280453     0.78500
C141        C  0.47195650  0.97192775  0.69369257     0.78400
C142        C  0.54087682  0.02574962  0.69325461     0.78400
O143        O  0.32583324  0.02538366  0.46938047    -0.70800
O144        O  0.33241283  0.97529507  0.51058620    -0.71000
O145        O  0.32871472  0.97959627  0.46478239    -0.70800
O146        O  0.32949749  0.02109743  0.51502211    -0.70900
O147        O  0.29234986  0.02125944  0.51604897    -0.70800
O148        O  0.29214516  0.97457260  0.46980489    -0.70800
O149        O  0.29559308  0.97500295  0.51592009    -0.70800
O150        O  0.28882287  0.02098933  0.46965833    -0.71000
V151        V  0.32839400  0.00030549  0.48998140     1.35200
V152        V  0.29285938  0.99802329  0.49277196     1.35200
C153        C  0.30630729  0.03134408  0.46207844     0.78500
C154        C  0.31520379  0.96699868  0.52089396     0.78500
C155        C  0.31044653  0.96947960  0.45914524     0.78400
C156        C  0.31116099  0.02859322  0.52402405     0.78400
O157        O  0.53166978  0.97312372  0.32141513    -0.70800
O158        O  0.48221080  0.01536987  0.32195686    -0.71000
O159        O  0.48578834  0.96971105  0.32494670    -0.70800
O160        O  0.52764654  0.01915351  0.31839655    -0.70900
O161        O  0.52695563  0.01538887  0.28133367    -0.70800
O162        O  0.48207840  0.96786113  0.28793392    -0.70800
O163        O  0.48072504  0.01452681  0.28476290    -0.70800
O164        O  0.52812020  0.96883506  0.28461203    -0.71000
V165        V  0.50684461  0.99424626  0.32090200     1.35200
V166        V  0.50450947  0.99170485  0.28530564     1.35200
C167        C  0.53799790  0.96324618  0.30312633     0.78500
C168        C  0.47329775  0.02258754  0.30359135     0.78500
C169        C  0.47643507  0.96060010  0.30766242     0.78400
C170        C  0.53434806  0.02585074  0.29886654     0.78400
O171        O  0.47978891  0.77500083  0.52184421    -0.70800
O172        O  0.52742615  0.76776779  0.47712616    -0.71000
O173        O  0.52610759  0.77535439  0.52301877    -0.70800
O174        O  0.48107826  0.76757975  0.47593675    -0.70900
O175        O  0.48345188  0.80403893  0.46852062    -0.70800
O176        O  0.52344084  0.81224113  0.51849733    -0.70800
O177        O  0.52880006  0.80492626  0.47358396    -0.70800
O178        O  0.47795995  0.81132817  0.51351903    -0.71000
V179        V  0.50360001  0.77202371  0.49939084     1.35200
V180        V  0.50340185  0.80736764  0.49366621     1.35200
C181        C  0.47042935  0.79446215  0.52485485     0.78500
C182        C  0.53637774  0.78534276  0.46806311     0.78500
C183        C  0.53208401  0.79537174  0.52907021     0.78400
C184        C  0.47511196  0.78464104  0.46377973     0.78400
C185        C  0.86687643  0.34694971  0.64218858    -0.01500
C186        C  0.86199980  0.34378331  0.34929667    -0.01500
C187        C  0.84900899  0.63431219  0.34975199    -0.01500
C188        C  0.85881447  0.64611144  0.63171182    -0.01500
O189        O  0.02867290  0.70092823  0.50779080    -0.70800
O190        O  0.98558437  0.70318143  0.45870298    -0.71000
O191        O  0.98254930  0.70443983  0.50495056    -0.70800
O192        O  0.03176452  0.69931529  0.46155852    -0.70900
O193        O  0.02827713  0.66229907  0.46238623    -0.70800
O194        O  0.98063308  0.66719603  0.50624830    -0.70800
O195        O  0.98283850  0.66597552  0.45993317    -0.70800
O196        O  0.02626299  0.66376681  0.50824426    -0.71000
V197        V  0.00707841  0.70129765  0.48325414     1.35200
V198        V  0.00448661  0.66558718  0.48418168     1.35200
C199        C  0.03500257  0.68190130  0.51626438     0.78500
C200        C  0.97714927  0.68486319  0.45079754     0.78500
C201        C  0.97364203  0.68650183  0.51337969     0.78400
C202        C  0.03831446  0.67972771  0.45447965     0.78400
O203        O  0.98154280  0.52357029  0.70449439    -0.70800
O204        O  0.02875832  0.47773380  0.70573677    -0.71000
O205        O  0.02797233  0.52414918  0.70356168    -0.70800
O206        O  0.98261078  0.47711729  0.70670966    -0.70900
O207        O  0.98054249  0.47707538  0.66951352    -0.70800
O208        O  0.02858014  0.52076168  0.66655024    -0.70800
O209        O  0.02618155  0.47462463  0.66867251    -0.70800
O210        O  0.98247118  0.52270998  0.66725526    -0.71000
V211        V  0.00521440  0.50067296  0.70447306     1.35200
V212        V  0.00453716  0.49891885  0.66875454     1.35200
C213        C  0.97378114  0.53065995  0.68547670     0.78500
C214        C  0.03473192  0.46777366  0.68733861     0.78500
C215        C  0.03642450  0.53016555  0.68444316     0.78400
C216        C  0.97379335  0.46916096  0.68854625     0.78400
O217        O  0.98077086  0.52318839  0.31236201    -0.70800
O218        O  0.02720383  0.47786491  0.31740479    -0.71000
O219        O  0.02644354  0.52365468  0.31255664    -0.70800
O220        O  0.98076804  0.47735049  0.31659014    -0.70900
O221        O  0.98099836  0.47385590  0.27954913    -0.70800
O222        O  0.02775716  0.51934446  0.27554006    -0.70800
O223        O  0.02740946  0.47316447  0.28042840    -0.70800
O224        O  0.98104830  0.52011369  0.27522848    -0.71000
V225        V  0.00379834  0.50033494  0.31395693     1.35200
V226        V  0.00429535  0.49669246  0.27835100     1.35200
C227        C  0.97312503  0.52967419  0.29319241     0.78500
C228        C  0.03544039  0.46792317  0.29995867     0.78500
C229        C  0.03486424  0.52939615  0.29338062     0.78400
C230        C  0.97275076  0.46795391  0.29872436     0.78400
O231        O  0.02926483  0.27065907  0.46873455    -0.70800
O232        O  0.98294753  0.26660637  0.51530296    -0.71000
O233        O  0.98278093  0.26962638  0.46883410    -0.70800
O234        O  0.02934323  0.26768009  0.51518247    -0.70900
O235        O  0.02546461  0.30458807  0.51939274    -0.70800
O236        O  0.98413599  0.30686051  0.46950451    -0.70800
O237        O  0.97993691  0.30383719  0.51486467    -0.70800
O238        O  0.03012240  0.30759940  0.47370407    -0.71000
V239        V  0.00608708  0.26924915  0.49200836     1.35200
V240        V  0.00501399  0.30496202  0.49426586     1.35200
C241        C  0.03805426  0.28992194  0.46383509     0.78500
C242        C  0.97320805  0.28473646  0.52253903     0.78500
C243        C  0.97544448  0.28877979  0.46137902     0.78400
C244        C  0.03455711  0.28592230  0.52579097     0.78400
O245        O  0.78826308  0.46742364  0.51869377    -0.70800
O246        O  0.77888547  0.51347691  0.47301308    -0.71000
O247        O  0.78472445  0.46734483  0.47237987    -0.70800
O248        O  0.78274134  0.51349866  0.51937279    -0.70900
O249        O  0.81991266  0.51567389  0.51760698    -0.70800
O250        O  0.82112729  0.47386088  0.46808549    -0.70800
O251        O  0.81572935  0.51897776  0.47162137    -0.70800
O252        O  0.82504215  0.47022649  0.51368388    -0.71000
V253        V  0.78427394  0.49053852  0.49582176     1.35200
V254        V  0.81967935  0.49466392  0.49286737     1.35200
C255        C  0.80831961  0.46068515  0.52365415     0.78500
C256        C  0.79587447  0.52379266  0.46434942     0.78500
C257        C  0.80340317  0.46320616  0.46188953     0.78400
C258        C  0.80129939  0.52179105  0.52694073     0.78400
C259        C  0.14803074  0.34524374  0.63912821    -0.01500
C260        C  0.16258895  0.63103941  0.34458490    -0.01500
C261        C  0.14924760  0.64801580  0.64093138    -0.01500
C262        C  0.15291670  0.34860398  0.35184657    -0.01500
O263        O  0.18394332  0.47466808  0.47854377    -0.70800
O264        O  0.18789027  0.52190577  0.52282567    -0.71000
O265        O  0.18769251  0.52041109  0.47723201    -0.70800
O266        O  0.18443987  0.47565409  0.52457025    -0.70900
O267        O  0.22153480  0.47236720  0.52429144    -0.70800
O268        O  0.22480439  0.51705093  0.47657320    -0.70800
O269        O  0.22507603  0.51908242  0.52290038    -0.70800
O270        O  0.22102315  0.47093097  0.47814895    -0.71000
V271        V  0.18676661  0.49802660  0.50087884     1.35200
V272        V  0.22244045  0.49492464  0.50057900     1.35200
C273        C  0.20163369  0.46503423  0.47039957     0.78500
C274        C  0.20699287  0.52919340  0.52978762     0.78500
C275        C  0.20676487  0.52631304  0.46874298     0.78400
C276        C  0.20236253  0.46593495  0.53217124     0.78400
C277        C  0.25389941  0.24646441  0.24553513    -0.01500
C278        C  0.75846284  0.23989883  0.24717515    -0.01500
C279        C  0.26091566  0.74104525  0.24388478    -0.01500
C280        C  0.25453913  0.24679047  0.74300401    -0.01500
C281        C  0.76048947  0.24568106  0.74340340    -0.01500
C282        C  0.74952849  0.74151370  0.24623339    -0.01500
C283        C  0.25755833  0.74645998  0.74469070    -0.01500
C284        C  0.15468468  0.14090982  0.14257624    -0.01500
C285        C  0.14923981  0.14016029  0.84097166    -0.01500
C286        C  0.86212929  0.14622564  0.13610354    -0.01500
C287        C  0.15083511  0.83665209  0.13845260    -0.01500
C288        C  0.85301269  0.84280791  0.14175499    -0.01500
O289        O  0.02933875  0.01275101  0.19756092    -0.70800
O290        O  0.98232552  0.96759141  0.19456364    -0.71000
O291        O  0.02840894  0.96608156  0.19747092    -0.70800
O292        O  0.98326838  0.01377477  0.19452319    -0.70900
O293        O  0.98355828  0.01096069  0.15739669    -0.70800
O294        O  0.03320154  0.96879819  0.16061779    -0.70800
O295        O  0.98740020  0.96514417  0.15774982    -0.70800
O296        O  0.02907959  0.01491917  0.16037681    -0.71000
V297        V  0.00594843  0.99002492  0.19540195     1.35200
V298        V  0.00832983  0.98993478  0.15975057     1.35200
C299        C  0.03630400  0.02240622  0.17938350     0.78500
C300        C  0.97705496  0.95843089  0.17561268     0.78500
C301        C  0.03870393  0.95951968  0.17942984     0.78400
C302        C  0.97522073  0.01997144  0.17531749     0.78400
C303        C  0.14670411  0.85155463  0.84144470    -0.01500
O304        O  0.16701383  0.97237417  0.97829908    -0.70800
O305        O  0.17396475  0.01937901  0.02291525    -0.71000
O306        O  0.16877690  0.01873184  0.97704473    -0.70800
O307        O  0.17201521  0.97376768  0.02406971    -0.70900
O308        O  0.20906655  0.97198938  0.02031376    -0.70800
O309        O  0.20562284  0.01645643  0.97210508    -0.70800
O310        O  0.21093377  0.01822074  0.01813225    -0.70800
O311        O  0.20396124  0.97013558  0.97453624    -0.71000
V312        V  0.17117527  0.99604446  0.00040306     1.35200
V313        V  0.20669919  0.99427407  0.99631615     1.35200
C314        C  0.18431054  0.96280743  0.96913154     0.78500
C315        C  0.19364090  0.02652085  0.02840930     0.78500
C316        C  0.18655765  0.02540898  0.96654959     0.78400
C317        C  0.19100995  0.96551315  0.03051293     0.78400
C318        C  0.86012334  0.14760678  0.85687364    -0.01500
O319        O  0.98866096  0.17786850  0.97043213    -0.70800
O320        O  0.03291450  0.17791384  0.01814644    -0.71000
O321        O  0.98728939  0.17691397  0.01631878    -0.70800
O322        O  0.03493106  0.17875306  0.97191147    -0.70900
O323        O  0.03317741  0.21605651  0.97139157    -0.70800
O324        O  0.98679376  0.21408311  0.01808748    -0.70800
O325        O  0.03310489  0.21525145  0.01800195    -0.70800
O326        O  0.98707964  0.21515986  0.97158810    -0.71000
V327        V  0.01099366  0.17862569  0.99413500     1.35200
V328        V  0.01008196  0.21445405  0.99475880     1.35200
C329        C  0.98001100  0.19646834  0.96318382     0.78500
C330        C  0.04021936  0.19653335  0.02648665     0.78500
C331        C  0.97906522  0.19499235  0.02514958     0.78400
C332        C  0.04195564  0.19760344  0.96379990     0.78400
C333        C  0.85987933  0.84814587  0.84231036    -0.01500
O334        O  0.97865654  0.81119023  0.01954792    -0.70800
O335        O  0.02990412  0.81576632  0.97965155    -0.71000
O336        O  0.98425720  0.81672126  0.97409886    -0.70800
O337        O  0.02439588  0.80983011  0.02508192    -0.70900
O338        O  0.02748242  0.77339037  0.01771101    -0.70800
O339        O  0.98087419  0.77960682  0.97222699    -0.70800
O340        O  0.02738687  0.77949189  0.97159995    -0.70800
O341        O  0.98104577  0.77393982  0.01832182    -0.71000
V342        V  0.00431166  0.81267330  0.99953162     1.35200
V343        V  0.00420995  0.77720783  0.99504514     1.35200
C344        C  0.97148511  0.79189543  0.02628145     0.78500
C345        C  0.03699422  0.79872700  0.96814730     0.78500
C346        C  0.97521833  0.79929074  0.96489806     0.78400
C347        C  0.03340189  0.79051589  0.02965206     0.78400
O348        O  0.83070513  0.96801638  0.02581315    -0.70800
O349        O  0.83538960  0.01409280  0.98016298    -0.71000
O350        O  0.83003601  0.01389987  0.02598229    -0.70800
O351        O  0.83587000  0.96789377  0.97998767    -0.70900
O352        O  0.79896892  0.96821224  0.97520641    -0.70800
O353        O  0.79298542  0.01371437  0.02219160    -0.70800
O354        O  0.79842352  0.01458078  0.97625445    -0.70800
O355        O  0.79384502  0.96704582  0.02147641    -0.71000
V356        V  0.83223548  0.99097913  0.00287278     1.35200
V357        V  0.79672110  0.99084175  0.99888129     1.35200
C358        C  0.81165196  0.95959927  0.03160251     0.78500
C359        C  0.81783442  0.02246447  0.97049973     0.78500
C360        C  0.81059535  0.02155164  0.03206135     0.78400
C361        C  0.81846959  0.96028531  0.96957574     0.78400
O362        O  0.02621027  0.01904199  0.81167396    -0.70800
O363        O  0.98593721  0.96833221  0.81240405    -0.71000
O364        O  0.03113864  0.97350656  0.80702872    -0.70800
O365        O  0.98084583  0.01380050  0.81708431    -0.70900
O366        O  0.97814312  0.01964783  0.78040316    -0.70800
O367        O  0.02457137  0.97396960  0.77035212    -0.70800
O368        O  0.97875787  0.97312312  0.77628415    -0.70800
O369        O  0.02422927  0.02063595  0.77457658    -0.71000
V370        V  0.00595436  0.99375080  0.81129172     1.35200
V371        V  0.00151460  0.99683038  0.77599936     1.35200
C372        C  0.03242371  0.02845010  0.79315295     0.78500
C373        C  0.97518173  0.96207609  0.79471894     0.78500
C374        C  0.03588152  0.96616564  0.78717238     0.78400
C375        C  0.97120195  0.02403711  0.80057343     0.78400
C376        C  0.75540451  0.74259522  0.74108284    -0.01500
C377        C  0.84273315  0.91269979  0.93145980    -0.13400
C378        C  0.82804584  0.91380358  0.91248490     0.17000
C379        C  0.80942723  0.92931046  0.91288179     0.03300
C380        C  0.80596974  0.94368403  0.93199593    -0.11900
C381        C  0.82105179  0.94307864  0.95080456    -0.02900
C382        C  0.83936391  0.92702621  0.95057190     0.02600
C383        C  0.83252890  0.89842265  0.89258200     0.09400
N384        N  0.79405992  0.93077085  0.89388671     0.65800
H385        H  0.79187278  0.95589520  0.93178166     0.18700
N386        N  0.85421056  0.92451423  0.96993142     0.76200
H387        H  0.85685230  0.90049958  0.93145777     0.10200
C388        C  0.84556413  0.90580383  0.87377909     0.03900
C389        C  0.85217702  0.89015420  0.85664537    -0.04800
C390        C  0.84683389  0.86636480  0.85779646    -0.23200
C391        C  0.83340247  0.85933083  0.87730282     0.13100
C392        C  0.82608648  0.87542621  0.89379371    -0.12400
N393        N  0.85444598  0.92865601  0.87313075     0.64800
H394        H  0.86398052  0.89680332  0.84418374     0.12700
N395        N  0.82997495  0.83563989  0.88288533     0.61400
H396        H  0.81665212  0.86949819  0.90870093     0.08800
O397        O  0.84624218  0.91746086  0.98880606    -0.40000
O398        O  0.87560539  0.92672852  0.96750444    -0.39200
O399        O  0.77450247  0.92167540  0.89518952    -0.39200
O400        O  0.79891580  0.94340101  0.87698414    -0.36900
O401        O  0.84015169  0.82755446  0.90021756    -0.37800
O402        O  0.81208167  0.82571712  0.87606158    -0.34000
O403        O  0.87067495  0.93411552  0.88630621    -0.35400
O404        O  0.84872913  0.94206278  0.85710718    -0.39700
C405        C  0.89299003  0.80490226  0.88430193    -0.13400
C406        C  0.90766938  0.82046755  0.89526886     0.17000
C407        C  0.90642020  0.84370168  0.88910020     0.03300
C408        C  0.89088338  0.85089676  0.87248384    -0.11900
C409        C  0.87564078  0.83581722  0.86089046    -0.02900
C410        C  0.87707475  0.81199255  0.86734221     0.02600
C411        C  0.92507382  0.81249420  0.91235154     0.09400
N412        N  0.92086580  0.86047338  0.89965136     0.65800
H413        H  0.89109842  0.86898140  0.86819402     0.18700
N414        N  0.86335213  0.79437455  0.85725131     0.76200
H415        H  0.89404432  0.78686830  0.88882255     0.10200
C416        C  0.91881295  0.80075952  0.93264532     0.03900
C417        C  0.93564243  0.79529675  0.94909220    -0.04800
C418        C  0.95852909  0.80208093  0.94601923    -0.23200
C419        C  0.96487615  0.81314460  0.92551870     0.13100
C420        C  0.94830742  0.81792098  0.90879252    -0.12400
N421        N  0.89528694  0.79578084  0.93753809     0.64800
H422        H  0.93056692  0.78700451  0.96495092     0.12700
N423        N  0.98817736  0.81955352  0.92146518     0.61400
H424        H  0.95353211  0.82644946  0.89311174     0.08800
O425        O  0.84239031  0.79287641  0.86236396    -0.40000
O426        O  0.87319468  0.77720445  0.84825522    -0.39200
O427        O  0.93377604  0.87282532  0.88742396    -0.39200
O428        O  0.91925987  0.86434973  0.92090142    -0.36900
O429        O  0.00234842  0.80487315  0.91399257    -0.37800
O430        O  0.99407957  0.84029511  0.92329734    -0.34000
O431        O  0.88929242  0.77544832  0.94193480    -0.35400
O432        O  0.88101373  0.81198804  0.94000854    -0.39700
C433        C  0.88764989  0.89075451  0.79815381    -0.13400
C434        C  0.91096726  0.88587720  0.80131468     0.17000
C435        C  0.91696195  0.86485681  0.81166506     0.03300
C436        C  0.90000171  0.85169789  0.82243712    -0.11900
C437        C  0.87676746  0.85915874  0.82385591    -0.02900
C438        C  0.87056541  0.87675943  0.80792924     0.02600
C439        C  0.92844612  0.90428138  0.79789518     0.09400
N440        N  0.94036438  0.85713722  0.81212438     0.65800
H441        H  0.90551666  0.83589074  0.83051698     0.18700
N442        N  0.84728458  0.88163747  0.80222987     0.76200
H443        H  0.88257364  0.90609459  0.78891712     0.10200
C444        C  0.92997622  0.91778365  0.77778106     0.03900
C445        C  0.94514611  0.93659324  0.77699883    -0.04800
C446        C  0.95910090  0.94216611  0.79587929    -0.23200
C447        C  0.95757694  0.92832665  0.81581443     0.13100
C448        C  0.94237038  0.90989669  0.81662635    -0.12400
N449        N  0.91665963  0.91234664  0.75792181     0.64800
H450        H  0.94614193  0.94674929  0.76145776     0.12700
N451        N  0.97120189  0.93275640  0.83565543     0.61400
H452        H  0.94103798  0.90018411  0.83244096     0.08800
O453        O  0.83734996  0.86845456  0.78828316    -0.40000
O454        O  0.83982112  0.90192626  0.80452564    -0.39200
O455        O  0.94885734  0.84908418  0.83034936    -0.39200
O456        O  0.95218024  0.85707783  0.79393750    -0.36900
O457        O  0.96318035  0.94502573  0.85166255    -0.37800
O458        O  0.98964173  0.92172446  0.83867712    -0.34000
O459        O  0.90500294  0.92778228  0.74808927    -0.35400
O460        O  0.91789018  0.89254376  0.74915798    -0.39700
C461        C  0.80673091  0.82222700  0.80923795    -0.13400
C462        C  0.81609517  0.80215060  0.79941064     0.17000
C463        C  0.83994147  0.79829393  0.80291906     0.03300
C464        C  0.85307789  0.81439115  0.81524094    -0.11900
C465        C  0.84316382  0.83257820  0.82800240    -0.02900
C466        C  0.81908122  0.83656919  0.82422076     0.02600
C467        C  0.80100221  0.78658474  0.78472258     0.09400
N468        N  0.85118474  0.77769351  0.79520798     0.65800
H469        H  0.87140661  0.81152189  0.81636559     0.18700
N470        N  0.80641165  0.85536394  0.83415233     0.76200
H471        H  0.78933484  0.82728077  0.80521318     0.10200
C472        C  0.77706634  0.78406084  0.78859941     0.03900
C473        C  0.76352639  0.77162081  0.77302262    -0.04800
C474        C  0.77298314  0.75758274  0.75545962    -0.23200
C475        C  0.79733304  0.75964182  0.75204712     0.13100
C476        C  0.81022055  0.77495512  0.76558876    -0.12400
N477        N  0.76615211  0.79275333  0.80893732     0.64800
H478        H  0.74518528  0.77110403  0.77606763     0.12700
N479        N  0.80982363  0.74743981  0.73469040     0.61400
H480        H  0.82786830  0.77773023  0.76065025     0.08800
O481        O  0.78915244  0.85089663  0.84645601    -0.40000
O482        O  0.80701181  0.87475884  0.82460414    -0.39200
O483        O  0.87063747  0.77875839  0.78568370    -0.39200
O484        O  0.84309223  0.75830681  0.80044324    -0.36900
O485        O  0.82541203  0.73360370  0.74078376    -0.37800
O486        O  0.81027574  0.75520324  0.71450331    -0.34000
O487        O  0.74695592  0.80281895  0.80763637    -0.35400
O488        O  0.77429691  0.78798969  0.82842060    -0.39700
C489        C  0.88841961  0.19505750  0.89471621    -0.13400
C490        C  0.91163114  0.18939147  0.89201943     0.17000
C491        C  0.91814188  0.17602154  0.87296778     0.03300
C492        C  0.90120880  0.16533551  0.85972887    -0.11900
C493        C  0.87766875  0.16610858  0.86612301    -0.02900
C494        C  0.87145124  0.18455148  0.88114817     0.02600
C495        C  0.92802808  0.19423578  0.91090113     0.09400
N496        N  0.94180261  0.17162215  0.86783712     0.65800
H497        H  0.90701615  0.15504545  0.84538901     0.18700
N498        N  0.84830771  0.19243295  0.88362029     0.76200
H499        H  0.88335129  0.20693186  0.90815016     0.10200
C500        C  0.94707735  0.20893379  0.90836593     0.03900
C501        C  0.96374538  0.20987960  0.92580770    -0.04800
C502        C  0.96180003  0.19621613  0.94559416    -0.23200
C503        C  0.94252290  0.18199708  0.94821393     0.13100
C504        C  0.92577824  0.18139481  0.93113621    -0.12400
N505        N  0.94961476  0.22298852  0.88836455     0.64800
H506        H  0.97843872  0.22102872  0.92375462     0.12700
N507        N  0.93962031  0.16815316  0.96826130     0.61400
H508        H  0.91116218  0.17032123  0.93354299     0.08800
O509        O  0.83974894  0.19408597  0.90347880    -0.40000
O510        O  0.83995090  0.20472450  0.86786280    -0.39200
O511        O  0.95411078  0.16062456  0.88187724    -0.39200
O512        O  0.94953956  0.17595045  0.84806509    -0.36900
O513        O  0.94236679  0.14667003  0.96698325    -0.37800
O514        O  0.93084355  0.17683317  0.98610289    -0.34000
O515        O  0.93369380  0.23656552  0.88258805    -0.35400
O516        O  0.96864702  0.22380564  0.87801451    -0.39700
C517        C  0.84591871  0.11461635  0.91433647    -0.13400
C518        C  0.83211384  0.09709345  0.90587115     0.17000
C519        C  0.82442756  0.09849306  0.88320339     0.03300
C520        C  0.83217439  0.11627878  0.86897698    -0.11900
C521        C  0.84765408  0.13352329  0.87644773    -0.02900
C522        C  0.85410198  0.13238062  0.90028608     0.02600
C523        C  0.82781253  0.07665797  0.92058521     0.09400
N524        N  0.81014875  0.08100056  0.87379937     0.65800
H525        H  0.82697563  0.11578503  0.85128283     0.18700
N526        N  0.87071600  0.14692259  0.91072112     0.76200
H527        H  0.85178455  0.11364650  0.93195686     0.10200
C528        C  0.84636710  0.06324046  0.92852276     0.03900
C529        C  0.84262080  0.04584646  0.94466739    -0.04800
C530        C  0.82048128  0.04098305  0.95296890    -0.23200
C531        C  0.80177289  0.05401632  0.94442044     0.13100
C532        C  0.80558700  0.07165848  0.92835575    -0.12400
N533        N  0.86914029  0.06696777  0.92006182     0.64800
H534        H  0.85723277  0.03590079  0.95053510     0.12700
N535        N  0.77896150  0.05030486  0.95258217     0.61400
H536        H  0.79124029  0.08201782  0.92253620     0.08800
O537        O  0.89143005  0.14055010  0.91048754    -0.40000
O538        O  0.86415509  0.15995783  0.92679055    -0.39200
O539        O  0.78982957  0.08574614  0.86800621    -0.39200
O540        O  0.81860512  0.06161994  0.86882793    -0.36900
O541        O  0.77243445  0.05953294  0.97109474    -0.37800
O542        O  0.76450576  0.04056252  0.93984137    -0.34000
O543        O  0.88524780  0.07118449  0.93382867    -0.35400
O544        O  0.87347640  0.06447648  0.89897486    -0.39700
C545        C  0.88531960  0.10131577  0.81285404    -0.13400
C546        C  0.90231128  0.09107867  0.82652449     0.17000
C547        C  0.90496591  0.09880279  0.84919996     0.03300
C548        C  0.89033250  0.11583196  0.85769982    -0.11900
C549        C  0.87377481  0.12754112  0.84418846    -0.02900
C550        C  0.87079605  0.11899755  0.82127257     0.02600
C551        C  0.91699457  0.07206675  0.81732649     0.09400
N552        N  0.92307127  0.09027624  0.86366853     0.65800
H553        H  0.89300852  0.12104011  0.87513701     0.18700
N554        N  0.85281392  0.12666347  0.80638131     0.76200
H555        H  0.88283519  0.09499061  0.79555152     0.10200
C556        C  0.91899276  0.05080832  0.82902112     0.03900
C557        C  0.93679163  0.03553837  0.82312146    -0.04800
C558        C  0.95212382  0.04041861  0.80518086    -0.23200
C559        C  0.94911585  0.06087415  0.79251035     0.13100
C560        C  0.93161100  0.07644892  0.79863701    -0.12400
N561        N  0.90333984  0.04468456  0.84710275     0.64800
H562        H  0.93855435  0.01955072  0.83250045     0.12700
N563        N  0.96484285  0.06699790  0.77468641     0.61400
H564        H  0.93038905  0.09273301  0.78969763     0.08800
O565        O  0.83232136  0.12131932  0.81074879    -0.40000
O566        O  0.85782260  0.13317728  0.78632994    -0.39200
O567        O  0.94328914  0.08857259  0.85599852    -0.39200
O568        O  0.91954984  0.08733758  0.88485234    -0.36900
O569        O  0.95769284  0.06986114  0.75447130    -0.37800
O570        O  0.98514953  0.07247472  0.77967311    -0.34000
O571        O  0.88218094  0.04898436  0.84517556    -0.35400
O572        O  0.91028606  0.03322503  0.86414147    -0.39700
C573        C  0.15841686  0.91743304  0.92984603    -0.13400
C574        C  0.17753306  0.91089163  0.91668820     0.17000
C575        C  0.19916480  0.92009710  0.92192499     0.03300
C576        C  0.20117101  0.93621122  0.93973797    -0.11900
C577        C  0.18180307  0.94377159  0.95222283    -0.02900
C578        C  0.16033557  0.93356822  0.94754617     0.02600
C579        C  0.17369929  0.89654455  0.89607837     0.09400
N580        N  0.21893478  0.91433210  0.90845249     0.65800
H581        H  0.21783680  0.94364803  0.94303342     0.18700
N582        N  0.14024684  0.93945142  0.96043734     0.76200
H583        H  0.14172535  0.91029980  0.92596845     0.10200
C584        C  0.17913348  0.87311871  0.89513795     0.03900
C585        C  0.17175647  0.85990093  0.87643998    -0.04800
C586        C  0.15898650  0.86928419  0.85783554    -0.23200
C587        C  0.15466142  0.89360510  0.85901972     0.13100
C588        C  0.16229404  0.90653263  0.87771631    -0.12400
N589        N  0.19088819  0.86218624  0.91366317     0.64800
H590        H  0.17519604  0.84170108  0.87700813     0.12700
N591        N  0.14109996  0.90601343  0.84296947     0.61400
H592        H  0.15804210  0.92469293  0.87848951     0.08800
O593        O  0.13656028  0.92985555  0.97949999    -0.40000
O594        O  0.12469480  0.95152576  0.95134952    -0.39200
O595        O  0.21970049  0.91978917  0.88750793    -0.39200
O596        O  0.23669452  0.90648792  0.91806452    -0.36900
O597        O  0.11983196  0.90786301  0.84670232    -0.37800
O598        O  0.15087906  0.92156937  0.83155116    -0.34000
O599        O  0.17973896  0.85548115  0.93097780    -0.35400
O600        O  0.21152928  0.85601801  0.91115554    -0.39700
C601        C  0.12615933  0.89313367  0.79239918    -0.13400
C602        C  0.10259329  0.89438430  0.79717557     0.17000
C603        C  0.09301942  0.87684288  0.81088602     0.03300
C604        C  0.10743466  0.86070614  0.82155718    -0.11900
C605        C  0.13160142  0.86345098  0.82208213    -0.02900
C606        C  0.14073643  0.87780732  0.80434747     0.02600
C607        C  0.08825467  0.91413647  0.78870942     0.09400
N608        N  0.06890991  0.87617825  0.81584735     0.65800
H609        H  0.09915583  0.84714571  0.83104915     0.18700
N610        N  0.16458895  0.87784959  0.79852522     0.76200
H611        H  0.13349274  0.90460201  0.77978311     0.10200
C612        C  0.09282153  0.93700703  0.79568805     0.03900
C613        C  0.07577210  0.95391149  0.79372558    -0.04800
C614        C  0.05435517  0.94894713  0.78436833    -0.23200
C615        C  0.05044036  0.92691752  0.77517687     0.13100
C616        C  0.06748967  0.90979494  0.77717163    -0.12400
N617        N  0.11409649  0.94335262  0.80596741     0.64800
H618        H  0.07904099  0.97100833  0.80031055     0.12700
N619        N  0.02848914  0.92098004  0.76608044     0.61400
H620        H  0.06370913  0.89251350  0.77145078     0.08800
O621        O  0.17523825  0.89667833  0.79851356    -0.40000
O622        O  0.17231777  0.86166946  0.78629159    -0.39200
O623        O  0.05817093  0.85748042  0.81418071    -0.39200
O624        O  0.05928258  0.89312652  0.82546356    -0.36900
O625        O  0.02687976  0.91391378  0.74568519    -0.37800
O626        O  0.01131086  0.91980126  0.77925648    -0.34000
O627        O  0.13160087  0.94526580  0.79333577    -0.35400
O628        O  0.11380114  0.95356618  0.82508176    -0.39700
C629        C  0.08586759  0.82548342  0.93412844    -0.13400
C630        C  0.08532613  0.81298645  0.91352975     0.17000
C631        C  0.07062606  0.79381939  0.91208592     0.03300
C632        C  0.05607206  0.78829454  0.93067109    -0.11900
C633        C  0.05549209  0.80191888  0.95063865    -0.02900
C634        C  0.07116454  0.82030553  0.95243488     0.02600
C635        C  0.09959721  0.82118793  0.89374227     0.09400
N636        N  0.06908932  0.78083085  0.89133553     0.65800
H637        H  0.04412591  0.77422046  0.92884843     0.18700
N638        N  0.07231832  0.83405387  0.97274744     0.76200
H639        H  0.09756923  0.83978830  0.93585689     0.10200
C640        C  0.09850229  0.84431047  0.88689970     0.03900
C641        C  0.11428943  0.85275127  0.87099107    -0.04800
C642        C  0.13060991  0.83869985  0.85937419    -0.23200
C643        C  0.13171911  0.81514071  0.86668585     0.13100
C644        C  0.11612907  0.80686867  0.88342137    -0.12400
N645        N  0.08103608  0.85948335  0.89563557     0.64800
H646        H  0.11303487  0.87075443  0.86679558     0.12700
N647        N  0.14920893  0.79949700  0.85912485     0.61400
H648        H  0.11771381  0.78924974  0.88923547     0.08800
O649        O  0.06785102  0.85527520  0.97179397    -0.40000
O650        O  0.08004947  0.82550736  0.99107854    -0.39200
O651        O  0.07406934  0.75970638  0.89133945    -0.39200
O652        O  0.06051815  0.78985990  0.87361627    -0.36900
O653        O  0.16935859  0.80155711  0.86666209    -0.37800
O654        O  0.14341058  0.78059372  0.85030917    -0.34000
O655        O  0.08603839  0.87969385  0.90159892    -0.35400
O656        O  0.06026191  0.85345815  0.89535228    -0.39700
C657        C  0.90724764  0.86910352  0.17090482    -0.13400
C658        C  0.90325454  0.89265774  0.16882428     0.17000
C659        C  0.88204973  0.90034235  0.16049588     0.03300
C660        C  0.86572700  0.88441052  0.15317815    -0.11900
C661        C  0.86944609  0.86025077  0.15419248    -0.02900
C662        C  0.89097185  0.85288243  0.16384226     0.02600
C663        C  0.92261316  0.90874471  0.17184878     0.09400
N664        N  0.87767980  0.92433980  0.15702025     0.65800
H665        H  0.85136690  0.89189093  0.14456363     0.18700
N666        N  0.89824463  0.82928328  0.16366095     0.76200
H667        H  0.92383075  0.86317828  0.17693778     0.10200
C668        C  0.92351593  0.92451896  0.19014242     0.03900
C669        C  0.94159624  0.94030989  0.19128798    -0.04800
C670        C  0.95881723  0.94078803  0.17432252    -0.23200
C671        C  0.95770257  0.92496998  0.15596620     0.13100
C672        C  0.93976195  0.90913824  0.15496118    -0.12400
N673        N  0.90626894  0.92464814  0.20764405     0.64800
H674        H  0.94200643  0.95242823  0.20539484     0.12700
N675        N  0.97474069  0.92457658  0.13828826     0.61400
H676        H  0.93902402  0.89722407  0.14068646     0.08800
O677        O  0.91635351  0.82376748  0.15301021    -0.40000
O678        O  0.88945516  0.81500429  0.17731310    -0.39200
O679        O  0.88915412  0.93531719  0.14229645    -0.39200
O680        O  0.86011588  0.93356727  0.16586182    -0.36900
O681        O  0.97001329  0.93233481  0.11863640    -0.37800
O682        O  0.99321914  0.91361733  0.14132714    -0.34000
O683        O  0.90500255  0.90808717  0.22155187    -0.35400
O684        O  0.89445678  0.94254854  0.21116114    -0.39700
C685        C  0.80712741  0.88736424  0.12171197    -0.13400
C686        C  0.80958194  0.88535680  0.09789533     0.17000
C687        C  0.81894552  0.86496531  0.08899736     0.03300
C688        C  0.83017819  0.84961159  0.10371820    -0.11900
C689        C  0.83314577  0.85471024  0.12737637    -0.02900
C690        C  0.81714350  0.87100959  0.13653847     0.02600
C691        C  0.80749797  0.90597238  0.08303108     0.09400
N692        N  0.81958617  0.86092852  0.06481353     0.65800
H693        H  0.83818909  0.83473871  0.09590926     0.18700
N694        N  0.81251509  0.87269425  0.16061800     0.76200
H695        H  0.79820944  0.90213992  0.12878852     0.10200
C696        C  0.78988259  0.90884188  0.06677136     0.03900
C697        C  0.79139732  0.92659113  0.05039389    -0.04800
C698        C  0.81043136  0.94141461  0.04966023    -0.23200
C699        C  0.82796638  0.93845241  0.06630800     0.13100
C700        C  0.82601570  0.92115137  0.08288252    -0.12400
N701        N  0.77049981  0.89384711  0.06665117     0.64800
H702        H  0.77775461  0.92856505  0.03795526     0.12700
N703        N  0.84822691  0.95229587  0.06651806     0.61400
H704        H  0.83985973  0.91868535  0.09504656     0.08800
O705        O  0.81309071  0.89210737  0.17027154    -0.40000
O706        O  0.80154579  0.85672131  0.17023291    -0.39200
O707        O  0.83561512  0.86918615  0.05283637    -0.39200
O708        O  0.80604368  0.84658940  0.05602439    -0.36900
O709        O  0.85394851  0.96216507  0.08490036    -0.37800
O710        O  0.86327730  0.94920714  0.05119297    -0.34000
O711        O  0.75851653  0.89147625  0.08456011    -0.35400
O712        O  0.76408700  0.88461471  0.04817295    -0.39700
C713        C  0.89651021  0.83176035  0.09162072    -0.13400
C714        C  0.89955678  0.80797085  0.09175154     0.17000
C715        C  0.88845411  0.79508627  0.10890706     0.03300
C716        C  0.87361988  0.80602950  0.12475739    -0.11900
C717        C  0.86962844  0.83013051  0.12428974    -0.02900
C718        C  0.88236854  0.84293959  0.10751560     0.02600
C719        C  0.91563867  0.79787911  0.07436728     0.09400
N720        N  0.89207292  0.77085180  0.11048832     0.65800
H721        H  0.86587883  0.79540217  0.13779076     0.18700
N722        N  0.88227190  0.86754906  0.10682034     0.76200
H723        H  0.90579970  0.84204975  0.07921012     0.10200
C724        C  0.91246770  0.80269628  0.05080216     0.03900
C725        C  0.93067713  0.79962662  0.03528636    -0.04800
C726        C  0.95193505  0.79101656  0.04253773    -0.23200
C727        C  0.95465446  0.78448946  0.06568405     0.13100
C728        C  0.93654581  0.78798873  0.08142363    -0.12400
N729        N  0.89105089  0.81164613  0.04262388     0.64800
H730        H  0.92837152  0.80446782  0.01747567     0.12700
N731        N  0.97634738  0.77643601  0.07386027     0.61400
H732        H  0.93947462  0.78467038  0.09947199     0.08800
O733        O  0.86945658  0.87770176  0.09263475    -0.40000
O734        O  0.89979593  0.87796561  0.11395132    -0.39200
O735        O  0.90304125  0.76259053  0.12722704    -0.39200
O736        O  0.88234297  0.75755957  0.09650793    -0.36900
O737        O  0.99244467  0.79047717  0.07705423    -0.37800
O738        O  0.97849498  0.75595886  0.08065322    -0.34000
O739        O  0.89063156  0.82920851  0.02992554    -0.35400
O740        O  0.87261330  0.80122959  0.04700639    -0.39700
C741        C  0.17724142  0.93482046  0.08606423    -0.13400
C742        C  0.18682601  0.91303258  0.08206843     0.17000
C743        C  0.20018150  0.90941209  0.06211206     0.03300
C744        C  0.20298421  0.92741693  0.04623594    -0.11900
C745        C  0.19164886  0.94854648  0.04938140    -0.02900
C746        C  0.17916694  0.95236307  0.06981077     0.02600
C747        C  0.17899837  0.89375189  0.09674492     0.09400
N748        N  0.20907583  0.88709702  0.05663845     0.65800
H749        H  0.21241679  0.92424449  0.03048787     0.18700
N750        N  0.16794859  0.97384060  0.07414939     0.76200
H751        H  0.16689515  0.93775885  0.10128743     0.10200
C752        C  0.19346207  0.88122287  0.11141008     0.03900
C753        C  0.18445825  0.86327577  0.12488210    -0.04800
C754        C  0.16107826  0.85677409  0.12368940    -0.23200
C755        C  0.14652441  0.87116018  0.10980270     0.13100
C756        C  0.15573872  0.88873981  0.09649030    -0.12400
N757        N  0.21695706  0.88753403  0.11398814     0.64800
H758        H  0.19582600  0.85559037  0.13725366     0.12700
N759        N  0.12210879  0.86891665  0.10893730     0.61400
H760        H  0.14432472  0.89879601  0.08572489     0.08800
O761        O  0.17549676  0.98675924  0.08975069    -0.40000
O762        O  0.14802710  0.97728901  0.06641304    -0.39200
O763        O  0.19545665  0.87073189  0.05293927    -0.39200
O764        O  0.23007986  0.88462996  0.05188410    -0.36900
O765        O  0.11345393  0.85764843  0.09268989    -0.37800
O766        O  0.11014874  0.88477647  0.11775592    -0.34000
O767        O  0.22202829  0.90492059  0.12583232    -0.35400
O768        O  0.23262002  0.87399735  0.10740136    -0.39700
C769        C  0.12472958  0.88376993  0.17845670    -0.13400
C770        C  0.10132936  0.88240860  0.17368332     0.17000
C771        C  0.09319073  0.86341832  0.16131114     0.03300
C772        C  0.10883698  0.84754910  0.15191235    -0.11900
C773        C  0.13301771  0.84998584  0.15426851    -0.02900
C774        C  0.14049977  0.86785504  0.16938469     0.02600
C775        C  0.08655314  0.90286476  0.17790398     0.09400
N776        N  0.06937414  0.86150928  0.15554539     0.65800
H777        H  0.10142942  0.83554209  0.14013611     0.34700
N778        N  0.16426112  0.87164745  0.17416887     0.76200
H779        H  0.13104596  0.89820848  0.18829727     0.10200
C780        C  0.06766138  0.90258812  0.19309065     0.03900
C781        C  0.05269686  0.92161864  0.19407016    -0.04800
C782        C  0.05613463  0.94088246  0.17993437    -0.23200
C783        C  0.07532299  0.94120169  0.16512498     0.13100
C784        C  0.09034446  0.92239321  0.16435776    -0.12400
N785        N  0.06334675  0.88306447  0.20733866     0.64800
H786        H  0.03796773  0.92106681  0.20544392     0.12700
N787        N  0.07978188  0.96051765  0.15068709     0.61400
H788        H  0.10469853  0.92271519  0.15248798     0.08800
O789        O  0.17346168  0.88980489  0.16681554    -0.40000
O790        O  0.17311178  0.86180756  0.19130315    -0.39200
O791        O  0.05955341  0.87722697  0.14426035    -0.39200
O792        O  0.05900758  0.84285529  0.15905146    -0.36900
O793        O  0.09254071  0.97643435  0.15778782    -0.37800
O794        O  0.07434292  0.95976855  0.12976243    -0.34000
O795        O  0.07753020  0.87754626  0.22272269    -0.35400
O796        O  0.04421632  0.87305577  0.20643137    -0.39700
C797        C  0.08614397  0.77337667  0.06460248    -0.13400
C798        C  0.08495854  0.78929770  0.08268057     0.17000
C799        C  0.06542646  0.80364262  0.08446938     0.03300
C800        C  0.04859508  0.80322057  0.06737408    -0.11900
C801        C  0.05044677  0.78838248  0.04848346    -0.02900
C802        C  0.06899406  0.77262112  0.04767581     0.02600
C803        C  0.10587346  0.79430242  0.09636893     0.09400
N804        N  0.06306090  0.81983448  0.10275179     0.65800
H805        H  0.03426545  0.81510946  0.06858239     0.18700
N806        N  0.07166475  0.75701323  0.02890224     0.76200
H807        H  0.10113298  0.76240570  0.06289158     0.10200
C808        C  0.10714111  0.79103616  0.12023819     0.03900
C809        C  0.12460225  0.80191242  0.13280270    -0.04800
C810        C  0.13925741  0.81827497  0.12241231    -0.23200
C811        C  0.14077403  0.81727474  0.09773255     0.13100
C812        C  0.12380158  0.80566298  0.08535215    -0.12400
N813        N  0.09008368  0.77795026  0.13207092     0.64800
H814        H  0.12439807  0.80016015  0.15128914     0.12700
N815        N  0.15848869  0.82801673  0.08435899     0.61400
H816        H  0.12379286  0.80689524  0.06678707     0.08800
O817        O  0.07141058  0.73563651  0.03250083    -0.40000
O818        O  0.07728894  0.76448514  0.00936375    -0.39200
O819        O  0.07118497  0.83971603  0.10032926    -0.39200
O820        O  0.04795388  0.81649650  0.11791118    -0.36900
O821        O  0.17609074  0.81632169  0.07951564    -0.37800
O822        O  0.15272872  0.84338382  0.07019918    -0.34000
O823        O  0.08662071  0.75729510  0.12655097    -0.35400
O824        O  0.07985700  0.78634398  0.14928360    -0.39700
C825        C  0.90722590  0.19064039  0.11525667    -0.13400
C826        C  0.90473177  0.18858908  0.09145437     0.17000
C827        C  0.88443796  0.17912874  0.08282952     0.03300
C828        C  0.86941546  0.16773055  0.09761588    -0.11900
C829        C  0.87436485  0.16516241  0.12126857    -0.02900
C830        C  0.89135220  0.18027795  0.13029218     0.02600
C831        C  0.92478709  0.19131466  0.07597559     0.09400
N832        N  0.87983689  0.17935365  0.05875708     0.65800
H833        H  0.85456201  0.15977179  0.08998876     0.18700
N834        N  0.89419969  0.18347726  0.15446371     0.76200
H835        H  0.92216218  0.19916686  0.12217827     0.10200
C836        C  0.93318689  0.21276196  0.06881664     0.03900
C837        C  0.95110274  0.21378163  0.05255155    -0.04800
C838        C  0.96083788  0.19357193  0.04320619    -0.23200
C839        C  0.95275513  0.17209939  0.05130893     0.13100
C840        C  0.93508482  0.17126702  0.06750500    -0.12400
N841        N  0.92330978  0.23354532  0.07744571     0.64800
H842        H  0.95708810  0.23044695  0.04692339     0.12700
N843        N  0.96193417  0.15080476  0.04309490     0.61400
H844        H  0.92897829  0.15465930  0.07321270     0.08800
O845        O  0.88132666  0.19769902  0.16466107    -0.40000
O846        O  0.91284862  0.17765056  0.16381476    -0.39200
O847        O  0.88533145  0.16230538  0.04650575    -0.39200
O848        O  0.86761558  0.19519340  0.05037062    -0.36900
O849        O  0.97622091  0.13990375  0.05519886    -0.37800
O850        O  0.95228106  0.14075214  0.02657946    -0.34000
O851        O  0.93355333  0.24479213  0.09278627    -0.35400
O852        O  0.90542372  0.24171111  0.06835333    -0.39700
C853        C  0.92745060  0.05763471  0.15163190    -0.13400
C854        C  0.92613978  0.07492239  0.16829137     0.17000
C855        C  0.93981359  0.07331110  0.18806227     0.03300
C856        C  0.95510051  0.05478172  0.19061735    -0.11900
C857        C  0.95700017  0.03775654  0.17357926    -0.02900
C858        C  0.94251956  0.03901624  0.15417765     0.02600
C859        C  0.91096130  0.09487927  0.16401015     0.09400
N860        N  0.93864102  0.09061149  0.20540626     0.65800
H861        H  0.96604664  0.05413803  0.20559821     0.18700
N862        N  0.94258017  0.02130813  0.13713913     0.76200
H863        H  0.91669786  0.05865808  0.13651745     0.10200
C864        C  0.91900845  0.11380600  0.15165957     0.03900
C865        C  0.90363476  0.13057036  0.14386800    -0.04800
C866        C  0.87965140  0.12937370  0.14816585    -0.23200
C867        C  0.87196840  0.11006845  0.16144418     0.13100
C868        C  0.88764301  0.09339376  0.16915746    -0.12400
N869        N  0.94254051  0.11499584  0.14479862     0.64800
H870        H  0.91088178  0.14302354  0.13238203     0.12700
N871        N  0.84815128  0.10573937  0.16563444     0.61400
H872        H  0.88132266  0.07845508  0.17825595     0.08800
O873        O  0.94784550  0.02596850  0.11665040    -0.40000
O874        O  0.93508899  0.00159841  0.14205086    -0.39200
O875        O  0.92616070  0.08759609  0.22285762    -0.39200
O876        O  0.95224172  0.10738698  0.20476376    -0.36900
O877        O  0.83875077  0.08950159  0.15488765    -0.37800
O878        O  0.83948984  0.11191503  0.18453076    -0.34000
O879        O  0.94859391  0.10742025  0.12540463    -0.35400
O880        O  0.95659103  0.12622801  0.15673070    -0.39700
C881        C  0.84711579  0.10063316  0.08943169    -0.13400
C882        C  0.82382876  0.09679937  0.09286555     0.17000
C883        C  0.81209327  0.10983057  0.10951722     0.03300
C884        C  0.82411982  0.12600782  0.12286857    -0.11900
C885        C  0.84806843  0.12962579  0.12011561    -0.02900
C886        C  0.85941796  0.11592374  0.10295283     0.02600
C887        C  0.81395978  0.07668935  0.08076756     0.09400
N888        N  0.78836447  0.10582668  0.11411250     0.65800
H889        H  0.81469160  0.13437508  0.13648723     0.18700
N890        N  0.88382226  0.11533617  0.10012948     0.76200
H891        H  0.85637580  0.09033726  0.07690119     0.10200
C892        C  0.79996713  0.07896458  0.06117100     0.03900
C893        C  0.79730407  0.06014230  0.04617816    -0.04800
C894        C  0.80898046  0.03931592  0.05022153    -0.23200
C895        C  0.82128565  0.03664436  0.07080412     0.13100
C896        C  0.82337117  0.05509075  0.08596640    -0.12400
N897        N  0.78997135  0.10064440  0.05531014     0.64800
H898        H  0.78765558  0.06239662  0.03046730     0.12700
N899        N  0.83254881  0.01547751  0.07614519     0.61400
H900        H  0.83406993  0.05307393  0.10102968     0.08800
O901        O  0.89273365  0.12687099  0.08414784    -0.40000
O902        O  0.89442515  0.09768244  0.10702460    -0.39200
O903        O  0.78254035  0.08886822  0.12624695    -0.39200
O904        O  0.77369121  0.12104418  0.10917545    -0.36900
O905        O  0.85333250  0.01267538  0.07064622    -0.37800
O906        O  0.82334836  0.00186484  0.09023046    -0.34000
O907        O  0.80210998  0.11591327  0.04595661    -0.35400
O908        O  0.76849446  0.10328782  0.05638516    -0.39700
C909        C  0.16510059  0.07510289  0.92952843    -0.13400
C910        C  0.18064318  0.07455727  0.91115764     0.17000
C911        C  0.19869463  0.05837067  0.91140234     0.03300
C912        C  0.20078787  0.04287743  0.92982142    -0.11900
C913        C  0.18490551  0.04305091  0.94806759    -0.02900
C914        C  0.16704084  0.05961722  0.94785131     0.02600
C915        C  0.17665416  0.09022346  0.89140638     0.09400
N916        N  0.21492325  0.05743583  0.89301036     0.65800
H917        H  0.21459136  0.03033510  0.92958336     0.18700
N918        N  0.15095577  0.06127816  0.96634181     0.76200
H919        H  0.15116922  0.08751979  0.92950305     0.10200
C920        C  0.16520904  0.08254205  0.87176325     0.03900
C921        C  0.15812560  0.09828837  0.85497747    -0.04800
C922        C  0.16174031  0.12232121  0.85708186    -0.23200
C923        C  0.17402075  0.12969360  0.87716028     0.13100
C924        C  0.18135605  0.11360408  0.89362976    -0.12400
N925        N  0.15804209  0.05913240  0.86996384     0.64800
H926        H  0.14732419  0.09125581  0.84194160     0.12700
N927        N  0.17642783  0.15352755  0.88300931     0.61400
H928        H  0.18966600  0.11965580  0.90908977     0.08800
O929        O  0.13028179  0.05583407  0.96316722    -0.40000
O930        O  0.15660633  0.07127161  0.98467287    -0.39200
O931        O  0.23235877  0.07017751  0.89344396    -0.39200
O932        O  0.21351753  0.04180616  0.87808767    -0.36900
O933        O  0.16763618  0.16084330  0.90145720    -0.37800
O934        O  0.19098846  0.16583704  0.87283614    -0.34000
O935        O  0.14221569  0.05182486  0.88281983    -0.35400
O936        O  0.16472120  0.04702943  0.85324674    -0.39700
C937        C  0.10255210  0.15437366  0.88734565    -0.13400
C938        C  0.10461805  0.17794929  0.89049802     0.17000
C939        C  0.12136758  0.18988976  0.87793345     0.03300
C940        C  0.13567747  0.17801112  0.86231509    -0.11900
C941        C  0.13359859  0.15397337  0.85852437    -0.02900
C942        C  0.11668880  0.14228401  0.87214757     0.02600
C943        C  0.09065104  0.18851448  0.90912676     0.09400
N944        N  0.12464434  0.21392895  0.88148121     0.65800
H945        H  0.14899760  0.18782479  0.85407475     0.18700
N946        N  0.11427270  0.11781755  0.87207090     0.76200
H947        H  0.09013590  0.14494775  0.89750158     0.10200
C948        C  0.06916170  0.19887524  0.90476015     0.03900
C949        C  0.05401313  0.20357666  0.92306823    -0.04800
C950        C  0.05981973  0.19758129  0.94568136    -0.23200
C951        C  0.08172282  0.18829838  0.95007359     0.13100
C952        C  0.09693296  0.18393619  0.93189975    -0.12400
N953        N  0.06175116  0.20287734  0.88174904     0.64800
H954        H  0.03706077  0.21036768  0.91942306     0.12700
N955        N  0.08844991  0.18258915  0.97292739     0.61400
H956        H  0.11329656  0.17576540  0.93545569     0.08800
O957        O  0.12054431  0.10682623  0.88965701    -0.40000
O958        O  0.09953410  0.10880882  0.85914314    -0.39200
O959        O  0.14157551  0.22078544  0.89299495    -0.39200
O960        O  0.11288127  0.22823075  0.87020594    -0.36900
O961        O  0.08967348  0.16181874  0.97901723    -0.37800
O962        O  0.09603688  0.19805748  0.98598075    -0.34000
O963        O  0.05344641  0.18659673  0.87019525    -0.35400
O964        O  0.06037610  0.22316055  0.87422625    -0.39700
C965        C  0.06698855  0.07944824  0.81459687    -0.13400
C966        C  0.08108292  0.08466297  0.79577373     0.17000
C967        C  0.07898150  0.07129203  0.77562677     0.03300
C968        C  0.06283366  0.05327589  0.77475208    -0.11900
C969        C  0.04873984  0.04817017  0.79374585    -0.02900
C970        C  0.05101443  0.06166487  0.81378995     0.02600
C971        C  0.09890818  0.10281639  0.79902388     0.09400
N972        N  0.09285554  0.07594710  0.75590173     0.65800
H973        H  0.06146531  0.04312705  0.75923849     0.18700
N974        N  0.03710756  0.05767420  0.83362426     0.76200
H975        H  0.06859313  0.08911595  0.83038573     0.10200
C976        C  0.09300879  0.12416221  0.80879650     0.03900
C977        C  0.10979047  0.13711125  0.82003546    -0.04800
C978        C  0.13277768  0.12917891  0.82228238    -0.23200
C979        C  0.13927194  0.11148841  0.80649463     0.13100
C980        C  0.12226270  0.09752438  0.79650464    -0.12400
N981        N  0.06976265  0.13228732  0.80847477     0.64800
H982        H  0.10421594  0.15301341  0.82791132     0.12700
N983        N  0.16273421  0.10659807  0.80118058     0.61400
H984        H  0.12735225  0.08201387  0.78753056     0.08800
O985        O  0.04585107  0.04866182  0.85126621    -0.40000
O986        O  0.01693251  0.06560679  0.83447614    -0.39200
O987        O  0.10540436  0.06034036  0.74745620    -0.39200
O988        O  0.09116930  0.09504954  0.74578818    -0.36900
O989        O  0.17000553  0.08616661  0.80260329    -0.37800
O990        O  0.17353227  0.12057183  0.78867339    -0.34000
O991        O  0.06038216  0.13957802  0.82663852    -0.35400
O992        O  0.05911755  0.13370407  0.78969872    -0.39700
C993        C  0.21300617  0.07761419  0.06405007    -0.13400
C994        C  0.19819892  0.07593720  0.08303133     0.17000
C995        C  0.18320914  0.05700812  0.08457566     0.03300
C996        C  0.18224420  0.04113527  0.06660034    -0.11900
C997        C  0.19615509  0.04344909  0.04709605    -0.02900
C998        C  0.21214129  0.06154515  0.04609478     0.02600
C999        C  0.19514623  0.09605081  0.09838551     0.09400
N1000       N  0.16780101  0.05436926  0.10353896     0.65800
H1001       H  0.17007323  0.02717068  0.06764665     0.18700
N1002       N  0.22623453  0.06491717  0.02623501     0.76200
H1003       H  0.22430067  0.09227020  0.06253790     0.10200
C1004       C  0.19786144  0.09491902  0.12234442     0.03900
C1005       C  0.18805070  0.11224055  0.13614060    -0.04800
C1006       C  0.17307518  0.12887548  0.12666387    -0.23200
C1007       C  0.17594227  0.13299780  0.10254563     0.13100
C1008       C  0.18617135  0.11609835  0.08880121    -0.12400
N1009       N  0.20925319  0.07576586  0.13286830     0.64800
H1010       H  0.18942199  0.11060271  0.15448379     0.12700
N1011       N  0.16931592  0.15396181  0.09141453     0.61400
H1012       H  0.18594187  0.11812535  0.07031171     0.08800
O1013       O  0.24760587  0.06743489  0.02842700    -0.40000
O1014       O  0.21706536  0.06828562  0.00692269    -0.39200
O1015       O  0.15022306  0.06700729  0.10489981    -0.39200
O1016       O  0.16888146  0.03642484  0.11564092    -0.36900
O1017       O  0.18243056  0.17104636  0.09296676    -0.37800
O1018       O  0.15614012  0.15290729  0.07431251    -0.34000
O1019       O  0.22829852  0.06876587  0.12514627    -0.35400
O1020       O  0.20098487  0.06662718  0.15069007    -0.39700
C1021       C  0.10275887  0.11624185  0.17729133    -0.13400
C1022       C  0.10529485  0.09256927  0.17414299     0.17000
C1023       C  0.12494873  0.08415931  0.16296844     0.03300
C1024       C  0.14109679  0.09951946  0.15415008    -0.11900
C1025       C  0.13872964  0.12376132  0.15617011    -0.02900
C1026       C  0.11906728  0.13187492  0.16880378     0.02600
C1027       C  0.08573607  0.07706969  0.17875433     0.09400
N1028       N  0.12766721  0.06009467  0.15819823     0.65800
H1029       H  0.15389436  0.09163965  0.14357235     0.18700
N1030       N  0.11392182  0.15591786  0.17122488     0.76200
H1031       H  0.08739392  0.12273736  0.18562914     0.10200
C1032       C  0.08642253  0.06022363  0.19611660     0.03900
C1033       C  0.06969852  0.04291548  0.19670499    -0.04800
C1034       C  0.05230477  0.04210978  0.18007036    -0.23200
C1035       C  0.05108336  0.05972803  0.16341508     0.13100
C1036       C  0.06777111  0.07689778  0.16287998    -0.12400
N1037       N  0.10428911  0.06023050  0.21285128     0.64800
H1038       H  0.07076262  0.02966005  0.20971743     0.12700
N1039       N  0.03296723  0.06044662  0.14691295     0.61400
H1040       H  0.06717633  0.08976644  0.14944319     0.08800
O1041       O  0.09453883  0.16342786  0.16505430    -0.40000
O1042       O  0.12648405  0.16857553  0.18337956    -0.39200
O1043       O  0.11259148  0.04955232  0.14687011    -0.39200
O1044       O  0.14656570  0.05025720  0.16227894    -0.36900
O1045       O  0.03761229  0.06001803  0.12575319    -0.37800
O1046       O  0.01261665  0.06425134  0.15339096    -0.34000
O1047       O  0.10342355  0.07424634  0.22935406    -0.35400
O1048       O  0.11911389  0.04435261  0.21291480    -0.39700
C1049       C  0.10764370  0.15355821  0.09679445    -0.13400
C1050       C  0.10558624  0.17734599  0.09706233     0.17000
C1051       C  0.11875290  0.18997197  0.11277152     0.03300
C1052       C  0.13397703  0.17848131  0.12773206    -0.11900
C1053       C  0.13713999  0.15426474  0.12690932    -0.02900
C1054       C  0.12276228  0.14195819  0.11122173     0.02600
C1055       C  0.08846573  0.18764891  0.08122595     0.09400
N1056       N  0.11621572  0.21434347  0.11436680     0.65800
H1057       H  0.14257300  0.18881413  0.14037464     0.18700
N1058       N  0.12315975  0.11748991  0.10912663     0.76200
H1059       H  0.09732025  0.14364985  0.08495124     0.10200
C1060       C  0.09494658  0.19962404  0.06115007     0.03900
C1061       C  0.07850783  0.20420802  0.04406592    -0.04800
C1062       C  0.05600231  0.19603089  0.04625476    -0.23200
C1063       C  0.04939671  0.18498963  0.06669812     0.13100
C1064       C  0.06547936  0.18118736  0.08403724    -0.12400
N1065       N  0.11844980  0.20502185  0.05675420     0.64800
H1066       H  0.08377568  0.21255017  0.02831809     0.12700
N1067       N  0.02657211  0.17664129  0.06965683     0.61400
H1068       H  0.06032372  0.17178939  0.09924696     0.08800
O1069       O  0.10676441  0.10639885  0.11786345    -0.40000
O1070       O  0.13336589  0.10885043  0.09205301    -0.39200
O1071       O  0.09896384  0.22281965  0.12446690    -0.39200
O1072       O  0.13265034  0.22719891  0.10871142    -0.36900
O1073       O  0.02283155  0.15533239  0.06873709    -0.37800
O1074       O  0.01097426  0.19006772  0.07661954    -0.34000
O1075       O  0.13220592  0.18918277  0.05110058    -0.35400
O1076       O  0.12423456  0.22567312  0.05382245    -0.39700
C1077       C  0.22681878  0.77966531  0.79628939    -0.13400
C1078       C  0.20624786  0.78758325  0.78666784     0.17000
C1079       C  0.20216105  0.78193467  0.76345624     0.03300
C1080       C  0.21789914  0.76788087  0.75134138    -0.11900
C1081       C  0.23923977  0.76009298  0.76043185    -0.02900
C1082       C  0.24356442  0.76757402  0.78358109     0.02600
C1083       C  0.19076423  0.80319143  0.80083287     0.09400
N1084       N  0.18293049  0.79143451  0.75127150     0.65800
H1085       H  0.21319294  0.76456475  0.73385796     0.18700
N1086       N  0.26556750  0.76579711  0.79418412     0.76200
H1087       H  0.23077304  0.78414970  0.81390411     0.10200
C1088       C  0.16652560  0.80141985  0.80168074     0.03900
C1089       C  0.15350024  0.81775612  0.81419608    -0.04800
C1090       C  0.16357713  0.83496370  0.82809291    -0.23200
C1091       C  0.18817518  0.83629490  0.82728726     0.13100
C1092       C  0.20092764  0.82077710  0.81372150    -0.12400
N1093       N  0.15477620  0.78269330  0.79086820     0.64800
H1094       H  0.13498817  0.81619926  0.81417383     0.12700
N1095       N  0.20111028  0.85356558  0.83893469     0.61400
H1096       H  0.21935681  0.82299293  0.81287145     0.08800
O1097       O  0.26808559  0.75170147  0.81045304    -0.40000
O1098       O  0.27817092  0.78334168  0.79386800    -0.39200
O1099       O  0.17862377  0.81268244  0.75236589    -0.39200
O1100       O  0.17199588  0.77919387  0.73718499    -0.36900
O1101       O  0.21678909  0.84742757  0.85256194    -0.37800
O1102       O  0.20120515  0.87385553  0.83136094    -0.34000
O1103       O  0.16269947  0.76251224  0.79223252    -0.35400
O1104       O  0.13525141  0.78585245  0.78204642    -0.39700
C1105       C  0.77355915  0.78396726  0.19936863    -0.13400
C1106       C  0.79737017  0.78150298  0.20143911     0.17000
C1107       C  0.80588420  0.76625774  0.21809563     0.03300
C1108       C  0.79076561  0.75367704  0.23206557    -0.11900
C1109       C  0.76651772  0.75624747  0.23079931    -0.02900
C1110       C  0.75822619  0.77176776  0.21350610     0.02600
C1111       C  0.81303575  0.79554420  0.18658483     0.09400
N1112       N  0.83003213  0.76264492  0.22047830     0.65800
H1113       H  0.79866546  0.74114485  0.24312180     0.18700
N1114       N  0.73422699  0.77483423  0.20921609     0.76200
H1115       H  0.76669444  0.79564799  0.18660398     0.10200
C1116       C  0.81216154  0.79454544  0.16247882     0.03900
C1117       C  0.82547282  0.80963991  0.14917961    -0.04800
C1118       C  0.84037147  0.82614657  0.15894806    -0.23200
C1119       C  0.84077830  0.82713414  0.18366683     0.13100
C1120       C  0.82759888  0.81161379  0.19674680    -0.12400
N1121       N  0.79802891  0.77800737  0.15116891     0.64800
H1122       H  0.82423629  0.80832730  0.13069125     0.12700
N1123       N  0.85283464  0.84438644  0.19634343     0.61400
H1124       H  0.82778220  0.81302050  0.21529083     0.08800
O1125       O  0.72567502  0.76551590  0.19167881    -0.40000
O1126       O  0.72388722  0.79176667  0.21805788    -0.39200
O1127       O  0.84010985  0.76922669  0.23842668    -0.39200
O1128       O  0.84071375  0.75050832  0.20598530    -0.36900
O1129       O  0.86634717  0.83820915  0.21210133    -0.37800
O1130       O  0.84495652  0.86460066  0.19686413    -0.34000
O1131       O  0.78463977  0.78424468  0.13534458    -0.35400
O1132       O  0.80043054  0.75688987  0.15551683    -0.39700
C1133       C  0.81257237  0.22342958  0.78157621    -0.13400
C1134       C  0.80283675  0.20437897  0.79275560     0.17000
C1135       C  0.77906783  0.20066741  0.78915999     0.03300
C1136       C  0.76641413  0.21554096  0.77488398    -0.11900
C1137       C  0.77672932  0.23232721  0.76072780    -0.02900
C1138       C  0.80050705  0.23682437  0.76536339     0.02600
C1139       C  0.81730482  0.18968121  0.80892810     0.09400
N1140       N  0.76745978  0.18115399  0.79863426     0.65800
H1141       H  0.74834016  0.21229582  0.77310757     0.18700
N1142       N  0.81305700  0.25523457  0.75499617     0.76200
H1143       H  0.82997052  0.22837745  0.78555493     0.10200
C1144       C  0.84099820  0.18515468  0.80523333     0.03900
C1145       C  0.85377149  0.17271381  0.82160800    -0.04800
C1146       C  0.84358378  0.16161802  0.84067621    -0.23200
C1147       C  0.81956041  0.16601058  0.84412000     0.13100
C1148       C  0.80753550  0.18070773  0.82910669    -0.12400
N1149       N  0.85241193  0.19210241  0.78455232     0.64800
H1150       H  0.87194556  0.17024019  0.81845818     0.12700
N1151       N  0.80661196  0.15672504  0.86283059     0.61400
H1152       H  0.79010617  0.18523447  0.83369918     0.08800
O1153       O  0.83103365  0.25048115  0.74378699    -0.40000
O1154       O  0.81059317  0.27539301  0.76258858    -0.39200
O1155       O  0.74788820  0.18357540  0.80768972    -0.39200
O1156       O  0.77542535  0.16117673  0.79552711    -0.36900
O1157       O  0.80823495  0.16552344  0.88251564    -0.37800
O1158       O  0.78943024  0.14436523  0.85847091    -0.34000
O1159       O  0.87183122  0.20155347  0.78552701    -0.35400
O1160       O  0.84431860  0.18659123  0.76526692    -0.39700
C1161       C  0.22121719  0.19209734  0.76677542    -0.13400
C1162       C  0.20987555  0.20125494  0.78585877     0.17000
C1163       C  0.21307481  0.22464497  0.79098139     0.03300
C1164       C  0.22721424  0.23817243  0.77679057    -0.11900
C1165       C  0.23956351  0.22930400  0.75771241    -0.02900
C1166       C  0.23555180  0.20544893  0.75260614     0.02600
C1167       C  0.19465619  0.18595105  0.79986241     0.09400
N1168       N  0.20284466  0.23480044  0.81101958     0.65800
H1169       H  0.22960913  0.25572468  0.78168243     0.18700
N1170       N  0.24527321  0.19381697  0.73326026     0.76200
H1171       H  0.21856212  0.17417949  0.76248708     0.10200
C1172       C  0.17072927  0.18912484  0.80103132     0.03900
C1173       C  0.15717479  0.17389799  0.81395495    -0.04800
C1174       C  0.16660348  0.15561347  0.82705829    -0.23200
C1175       C  0.19107359  0.15224813  0.82507657     0.13100
C1176       C  0.20436982  0.16746779  0.81177595    -0.12400
N1177       N  0.15979596  0.20754577  0.78889130     0.64800
H1178       H  0.13879105  0.17666077  0.81399976     0.12700
N1179       N  0.20324934  0.13353722  0.83563937     0.61400
H1180       H  0.22273472  0.16465353  0.81056222     0.08800
O1181       O  0.23519658  0.19492157  0.71416614    -0.40000
O1182       O  0.25834837  0.17690479  0.73702535    -0.39200
O1183       O  0.20437963  0.22484118  0.83019938    -0.39200
O1184       O  0.19460104  0.25488199  0.81012816    -0.36900
O1185       O  0.20169680  0.11364607  0.82726869    -0.37800
O1186       O  0.22030029  0.13788730  0.84818927    -0.34000
O1187       O  0.16208144  0.20923215  0.76741784    -0.35400
O1188       O  0.14620123  0.22093210  0.79930370    -0.39700
C1189       C  0.21791945  0.78906799  0.22270692    -0.13400
C1190       C  0.21579010  0.78423066  0.19913223     0.17000
C1191       C  0.23067089  0.76723122  0.18986234     0.03300
C1192       C  0.24678985  0.75605543  0.20389984    -0.11900
C1193       C  0.24639433  0.75785812  0.22814539    -0.02900
C1194       C  0.23230891  0.77596357  0.23725534     0.02600
C1195       C  0.19915183  0.79779377  0.18425958     0.09400
N1196       N  0.22875073  0.75971684  0.16650294     0.65800
H1197       H  0.25884743  0.74505798  0.19519695     0.18700
N1198       N  0.23270504  0.78189434  0.26111630     0.76200
H1199       H  0.20798738  0.80296745  0.23015955     0.10200
C1200       C  0.17665451  0.80371564  0.19142332     0.03900
C1201       C  0.16203489  0.81646392  0.17685660    -0.04800
C1202       C  0.16833214  0.82286510  0.15415698    -0.23200
C1203       C  0.18976384  0.81382377  0.14641080     0.13100
C1204       C  0.20550398  0.80415475  0.16191195    -0.12400
N1205       N  0.16766454  0.79569999  0.21281099     0.64800
H1206       H  0.14506082  0.82040500  0.18333299     0.12700
N1207       N  0.19482347  0.81087163  0.12267899     0.61400
H1208       H  0.22248222  0.80003995  0.15555774     0.08800
O1209       O  0.23889433  0.80177769  0.26701944    -0.40000
O1210       O  0.22310211  0.76912715  0.27571076    -0.39200
O1211       O  0.24651599  0.75729438  0.15427117    -0.39200
O1212       O  0.20971946  0.75274138  0.15901360    -0.36900
O1213       O  0.21126677  0.82196539  0.11402357    -0.37800
O1214       O  0.18987897  0.79165074  0.11401795    -0.34000
O1215       O  0.15918806  0.80982072  0.22696475    -0.35400
O1216       O  0.16432829  0.77449127  0.21562886    -0.39700
C1217       C  0.78162796  0.19251800  0.20475976    -0.13400
C1218       C  0.80523904  0.19673984  0.20437525     0.17000
C1219       C  0.81417145  0.21311919  0.21973034     0.03300
C1220       C  0.79921458  0.22542672  0.23423640    -0.11900
C1221       C  0.77495692  0.22345831  0.23295325    -0.02900
C1222       C  0.76662322  0.20495796  0.21907302     0.02600
C1223       C  0.81995203  0.18369499  0.18777270     0.09400
N1224       N  0.83827681  0.21811186  0.22039608     0.65800
H1225       H  0.80719482  0.23683560  0.24631248     0.18700
N1226       N  0.74304030  0.19814666  0.21931305     0.76200
H1227       H  0.77469821  0.17917865  0.19384831     0.10200
C1228       C  0.83864618  0.16985926  0.19465937     0.03900
C1229       C  0.85215004  0.15867309  0.17796456    -0.04800
C1230       C  0.84710009  0.15968995  0.15415487    -0.23200
C1231       C  0.82901938  0.17498398  0.14760547     0.13100
C1232       C  0.81557035  0.18613115  0.16430041    -0.12400
N1233       N  0.84410068  0.16672753  0.21848529     0.64800
H1234       H  0.86681671  0.14912818  0.18410446     0.12700
N1235       N  0.82447492  0.18041508  0.12411331     0.61400
H1236       H  0.80183468  0.19745829  0.15876787     0.08800
O1237       O  0.73718004  0.18202096  0.23252599    -0.40000
O1238       O  0.73078541  0.20220058  0.20195401    -0.39200
O1239       O  0.84920715  0.22175213  0.20203624    -0.39200
O1240       O  0.84808653  0.22148085  0.23937916    -0.36900
O1241       O  0.80629707  0.17305594  0.11506441    -0.37800
O1242       O  0.83361873  0.19814955  0.11573346    -0.34000
O1243       O  0.82846796  0.16233911  0.23284024    -0.35400
O1244       O  0.86476834  0.16633503  0.22491320    -0.39700
C1245       C  0.18619743  0.16615534  0.19700292    -0.13400
C1246       C  0.19715933  0.18523751  0.18753978     0.17000
C1247       C  0.19531775  0.18909244  0.16387941     0.03300
C1248       C  0.18204230  0.17441460  0.15032970    -0.11900
C1249       C  0.16927158  0.15598402  0.15956205    -0.02900
C1250       C  0.17290210  0.15124027  0.18354772     0.02600
C1251       C  0.21127430  0.20040171  0.20240965     0.09400
N1252       N  0.20629215  0.20835984  0.15341242     0.65800
H1253       H  0.18101471  0.17821438  0.13237775     0.18700
N1254       N  0.16435390  0.13115197  0.19483414     0.76200
H1255       H  0.18851378  0.16238284  0.21506333     0.10200
C1256       C  0.20127757  0.21333569  0.22015254     0.03900
C1257       C  0.21479622  0.22782007  0.23366186    -0.04800
C1258       C  0.23886786  0.22986615  0.23034066    -0.23200
C1259       C  0.24893917  0.21505308  0.21337777     0.13100
C1260       C  0.23506676  0.20126389  0.19935589    -0.12400
N1261       N  0.17724973  0.21182537  0.22480094     0.64800
H1262       H  0.20602392  0.23660887  0.24743454     0.12700
N1263       N  0.27326923  0.21342349  0.21021461     0.61400
H1264       H  0.24306827  0.19062565  0.18629620     0.08800
O1265       O  0.15010174  0.13354124  0.21102037    -0.40000
O1266       O  0.17586040  0.11276266  0.19376086    -0.39200
O1267       O  0.22227599  0.20521848  0.13908540    -0.39200
O1268       O  0.19843349  0.22834832  0.15665136    -0.36900
O1269       O  0.28408506  0.19785686  0.22076085    -0.37800
O1270       O  0.28211419  0.22173839  0.19227805    -0.34000
O1271       O  0.17022756  0.19945375  0.24112638    -0.35400
O1272       O  0.16341791  0.22507226  0.21464268    -0.39700
C1273       C  0.18961452  0.39752859  0.37958108    -0.13400
C1274       C  0.18591155  0.39409483  0.40298345     0.17000
C1275       C  0.17285537  0.37525096  0.41012117     0.03300
C1276       C  0.16347045  0.36036086  0.39383419    -0.11900
C1277       C  0.16666733  0.36339086  0.36982128    -0.02900
C1278       C  0.17994301  0.38300377  0.36304595     0.02600
C1279       C  0.19191418  0.41260608  0.41930291     0.09400
N1280       N  0.16693800  0.37230422  0.43379846     0.65800
H1281       H  0.15194912  0.34777431  0.40068855     0.18700
N1282       N  0.18168920  0.39027694  0.33964745     0.76200
H1283       H  0.19885912  0.41264808  0.37397831     0.10200
C1284       C  0.20967376  0.41034773  0.43553372     0.03900
C1285       C  0.21325819  0.42787645  0.45175619    -0.04800
C1286       C  0.19921328  0.44759536  0.45204997    -0.23200
C1287       C  0.18175045  0.44986577  0.43541791     0.13100
C1288       C  0.17824636  0.43242801  0.41936557    -0.12400
N1289       N  0.22406058  0.39038562  0.43573461     0.64800
H1290       H  0.22667814  0.42585130  0.46443166     0.12700
N1291       N  0.16762288  0.47000803  0.43436135     0.61400
H1292       H  0.16455187  0.43425961  0.40693744     0.08800
O1293       O  0.16920755  0.40682606  0.33318535    -0.40000
O1294       O  0.20010331  0.38651956  0.32884352    -0.39200
O1295       O  0.15347244  0.38641616  0.44338848    -0.39200
O1296       O  0.17203020  0.35380970  0.44391633    -0.36900
O1297       O  0.17608765  0.48879563  0.42774394    -0.37800
O1298       O  0.14624445  0.46845847  0.43742139    -0.34000
O1299       O  0.23931507  0.38786464  0.42051928    -0.35400
O1300       O  0.22333715  0.37668907  0.45249809    -0.39700
C1301       C  0.22406965  0.27522784  0.29965270    -0.13400
C1302       C  0.20808222  0.28974254  0.28914101     0.17000
C1303       C  0.20719244  0.29027633  0.26499279     0.03300
C1304       C  0.22227478  0.27631793  0.25214701    -0.11900
C1305       C  0.23851459  0.26121234  0.26240601    -0.02900
C1306       C  0.23954991  0.26158605  0.28708793     0.02600
C1307       C  0.19383992  0.30505085  0.30418213     0.09400
N1308       N  0.19148044  0.30514502  0.25314166     0.65800
H1309       H  0.22121743  0.27715851  0.23361344     0.18700
N1310       N  0.25654307  0.24966842  0.30033700     0.76200
H1311       H  0.22511716  0.27507945  0.31822708     0.10200
C1312       C  0.16968023  0.30486060  0.30439606     0.03900
C1313       C  0.15765488  0.31937373  0.31961426    -0.04800
C1314       C  0.16879578  0.33415527  0.33541369    -0.23200
C1315       C  0.19349166  0.33279339  0.33595564     0.13100
C1316       C  0.20521245  0.31920198  0.31977501    -0.12400
N1317       N  0.15704814  0.28955131  0.28990753     0.64800
H1318       H  0.13908326  0.31897269  0.31923660     0.12700
N1319       N  0.20746028  0.34285746  0.35354394     0.61400
H1320       H  0.22380541  0.31873348  0.32019620     0.08800
O1321       O  0.25006626  0.23712130  0.31677506    -0.40000
O1322       O  0.27683884  0.25702946  0.30052884    -0.39200
O1323       O  0.18957364  0.32600225  0.25880749    -0.39200
O1324       O  0.18085404  0.29792834  0.23575022    -0.36900
O1325       O  0.20598219  0.33538319  0.37378588    -0.37800
O1326       O  0.22566507  0.35308093  0.34784528    -0.34000
O1327       O  0.16230225  0.26849807  0.28904111    -0.35400
O1328       O  0.13917113  0.29651661  0.27983805    -0.39700
C1329       C  0.16229809  0.60174829  0.59393545    -0.13400
C1330       C  0.18605912  0.60244682  0.59173295     0.17000
C1331       C  0.19816884  0.61971882  0.60328061     0.03300
C1332       C  0.18641001  0.63520580  0.61778762    -0.11900
C1333       C  0.16243173  0.63341496  0.62197854    -0.02900
C1334       C  0.15040182  0.61697582  0.60819217     0.02600
C1335       C  0.19694702  0.58584448  0.57562586     0.09400
N1336       N  0.22230047  0.62220844  0.59989697     0.65800
H1337       H  0.19637461  0.64885434  0.62520984     0.18700
N1338       N  0.12592083  0.61566203  0.60768645     0.76200
H1339       H  0.15268028  0.58918408  0.58420866     0.10200
C1340       C  0.20882981  0.56604804  0.58330620     0.03900
C1341       C  0.21428718  0.54833540  0.56763305    -0.04800
C1342       C  0.20738121  0.54984772  0.54462009    -0.23200
C1343       C  0.19674557  0.57022198  0.53688123     0.13100
C1344       C  0.19175538  0.58796798  0.55228661    -0.12400
N1345       N  0.21353775  0.56274085  0.60716933     0.64800
H1346       H  0.22207062  0.53258936  0.57386175     0.12700
N1347       N  0.19007678  0.57272589  0.51344767     0.61400
H1348       H  0.18261484  0.60304564  0.54620741     0.08800
O1349       O  0.11592092  0.60087651  0.61988509    -0.40000
O1350       O  0.11575372  0.62304411  0.59007876    -0.39200
O1351       O  0.22961600  0.63582232  0.58473777    -0.39200
O1352       O  0.23607558  0.61387650  0.61437131    -0.36900
O1353       O  0.16907415  0.57365986  0.50831414    -0.37800
O1354       O  0.20497964  0.57788184  0.49860631    -0.34000
O1355       O  0.19721364  0.56163165  0.62140072    -0.35400
O1356       O  0.23364636  0.55790686  0.61359466    -0.39700
C1357       C  0.17747937  0.70084570  0.67313018    -0.13400
C1358       C  0.19800399  0.69096268  0.68123347     0.17000
C1359       C  0.20172736  0.66731990  0.67653370     0.03300
C1360       C  0.18454645  0.65431320  0.66585736    -0.11900
C1361       C  0.16523456  0.66443737  0.65519753    -0.02900
C1362       C  0.16161607  0.68850057  0.65968138     0.02600
C1363       C  0.21426385  0.70484053  0.69608920     0.09400
N1364       N  0.22341945  0.65640994  0.68100471     0.65800
H1365       H  0.18746861  0.63602525  0.66393273     0.18700
N1366       N  0.14167253  0.70091355  0.65214520     0.76200
H1367       H  0.17339185  0.71848989  0.67743909     0.10200
C1368       C  0.21935572  0.72822873  0.69208225     0.03900
C1369       C  0.23330943  0.74041459  0.70760987    -0.04800
C1370       C  0.24412016  0.73011716  0.72700279    -0.23200
C1371       C  0.24204485  0.70546456  0.72788349     0.13100
C1372       C  0.22515900  0.69431009  0.71477805    -0.12400
N1373       N  0.21111737  0.73991109  0.67205508     0.64800
H1374       H  0.23609697  0.75841672  0.70401700     0.12700
N1375       N  0.25874660  0.69056600  0.73824256     0.61400
H1376       H  0.22193129  0.67637912  0.71824398     0.08800
O1377       O  0.12484829  0.70285144  0.66565156    -0.40000
O1378       O  0.14405765  0.71612735  0.63691737    -0.39200
O1379       O  0.22415194  0.63611522  0.68862867    -0.39200
O1380       O  0.24180022  0.66594477  0.67471490    -0.36900
O1381       O  0.27952612  0.69210482  0.73238481    -0.37800
O1382       O  0.25224679  0.67250263  0.74829659    -0.34000
O1383       O  0.20224453  0.75967097  0.67380903    -0.35400
O1384       O  0.21484680  0.73157807  0.65238771    -0.39700
C1385       C  0.19054685  0.57793847  0.37510572    -0.13400
C1386       C  0.20175071  0.58930286  0.39281975     0.17000
C1387       C  0.20587169  0.61294216  0.39071046     0.03300
C1388       C  0.19596485  0.62526444  0.37248720    -0.11900
C1389       C  0.17983907  0.61482508  0.35767236    -0.02900
C1390       C  0.18009444  0.59002737  0.35715192     0.02600
C1391       C  0.20604636  0.57631196  0.41424240     0.09400
N1392       N  0.21860078  0.62490512  0.40781760     0.65800
H1393       H  0.19815930  0.64373557  0.37209783     0.18700
N1394       N  0.16980588  0.57635457  0.33941291     0.76200
H1395       H  0.18881654  0.55941209  0.37587521     0.10200
C1396       C  0.19001953  0.57741449  0.43238095     0.03900
C1397       C  0.19075787  0.56110124  0.44996266    -0.04800
C1398       C  0.20762208  0.54383183  0.45030645    -0.23200
C1399       C  0.22437520  0.54337114  0.43274221     0.13100
C1400       C  0.22334607  0.55946246  0.41478978    -0.12400
N1401       N  0.17194080  0.59409684  0.43246282     0.64800
H1402       H  0.17771247  0.56171219  0.46322496     0.12700
N1403       N  0.24126005  0.52550994  0.43180158     0.61400
H1404       H  0.23536224  0.55807759  0.40062615     0.08800
O1405       O  0.15552372  0.56110043  0.34500856    -0.40000
O1406       O  0.18041199  0.57370408  0.32073924    -0.39200
O1407       O  0.24021029  0.62527829  0.40666796    -0.39200
O1408       O  0.20830165  0.63779503  0.42193318    -0.36900
O1409       O  0.23590889  0.50591376  0.42432281    -0.37800
O1410       O  0.26200368  0.53003105  0.43583367    -0.34000
O1411       O  0.15307714  0.58920047  0.42319622    -0.35400
O1412       O  0.17266345  0.61048531  0.44660219    -0.39700
C1413       C  0.20650098  0.65438344  0.29847113    -0.13400
C1414       C  0.20521869  0.67810898  0.30167482     0.17000
C1415       C  0.19078971  0.68668124  0.31896017     0.03300
C1416       C  0.17804629  0.67156183  0.33268461    -0.11900
C1417       C  0.17774472  0.64736196  0.32891356    -0.02900
C1418       C  0.19348168  0.63910097  0.31185311     0.02600
C1419       C  0.21906259  0.69368534  0.28684312     0.09400
N1420       N  0.18925888  0.71083735  0.32316755     0.65800
H1421       H  0.16858253  0.67945202  0.34654907     0.18700
N1422       N  0.19785006  0.61526242  0.30841610     0.76200
H1423       H  0.21802174  0.64752509  0.28550331     0.10200
C1424       C  0.24312515  0.69277902  0.28654718     0.03900
C1425       C  0.25550494  0.70723362  0.27181791    -0.04800
C1426       C  0.24477350  0.72393961  0.25762868    -0.23200
C1427       C  0.22017689  0.72247933  0.25620777     0.13100
C1428       C  0.20793412  0.70824574  0.27140089    -0.12400
N1429       N  0.25531938  0.67782960  0.30176802     0.64800
H1430       H  0.27396890  0.70620230  0.27245075     0.12700
N1431       N  0.20698400  0.73337700  0.23860518     0.61400
H1432       H  0.18937733  0.70770838  0.27034057     0.08800
O1433       O  0.21434326  0.60628272  0.31924117    -0.40000
O1434       O  0.19201463  0.60641692  0.28954647    -0.39200
O1435       O  0.17172883  0.72194056  0.31685357    -0.39200
O1436       O  0.20463658  0.72076500  0.33461568    -0.36900
O1437       O  0.20803743  0.72552173  0.21844892    -0.37800
O1438       O  0.18973300  0.74530724  0.24427709    -0.34000
O1439       O  0.26915249  0.66306775  0.29383274    -0.35400
O1440       O  0.25378644  0.68069678  0.32318412    -0.39700
C1441       C  0.19184596  0.39111442  0.61900708    -0.13400
C1442       C  0.18897956  0.39010017  0.59520295     0.17000
C1443       C  0.17877995  0.37052575  0.58565929     0.03300
C1444       C  0.16785033  0.35461556  0.59998988    -0.11900
C1445       C  0.16640082  0.35806410  0.62402852    -0.02900
C1446       C  0.18192855  0.37447797  0.63343090     0.02600
C1447       C  0.19402284  0.41049746  0.58076703     0.09400
N1448       N  0.17805888  0.36734346  0.56135222     0.65800
H1449       H  0.15936229  0.34032430  0.59183949     0.18700
N1450       N  0.18580900  0.37617359  0.65760986     0.76200
H1451       H  0.20106274  0.40537734  0.62648775     0.10200
C1452       C  0.17792010  0.42856698  0.57940703     0.03900
C1453       C  0.18113789  0.44652022  0.56376868    -0.04800
C1454       C  0.20057971  0.44723901  0.54952087    -0.23200
C1455       C  0.21719990  0.42949274  0.55147063     0.13100
C1456       C  0.21367889  0.41119953  0.56686420    -0.12400
N1457       N  0.15795241  0.42869255  0.59365841     0.64800
H1458       H  0.16827678  0.45999824  0.56278136     0.12700
N1459       N  0.23712238  0.42914172  0.53713845     0.61400
H1460       H  0.22605567  0.39726288  0.56760579     0.08800
O1461       O  0.18041121  0.39444965  0.66801822    -0.40000
O1462       O  0.20017628  0.36273612  0.66673965    -0.39200
O1463       O  0.19005181  0.35174336  0.55213774    -0.39200
O1464       O  0.16383764  0.37850730  0.54940493    -0.36900
O1465       O  0.25624816  0.43511781  0.54520028    -0.37800
O1466       O  0.23618867  0.42011394  0.51748091    -0.34000
O1467       O  0.15906032  0.43727338  0.61348527    -0.35400
O1468       O  0.13861845  0.42430172  0.58509096    -0.39700
C1469       C  0.21636584  0.29882619  0.72069392    -0.13400
C1470       C  0.20324678  0.28803517  0.70372880     0.17000
C1471       C  0.20464255  0.26396661  0.70204839     0.03300
C1472       C  0.22028699  0.25163695  0.71568633    -0.11900
C1473       C  0.23572741  0.26241168  0.73097846    -0.02900
C1474       C  0.23115676  0.28636495  0.73530574     0.02600
C1475       C  0.18838110  0.30201941  0.68785882     0.09400
N1476       N  0.18992890  0.25166677  0.68681805     0.65800
H1477       H  0.22099292  0.23333180  0.71343160     0.18700
N1478       N  0.23824764  0.29794823  0.75581456     0.76200
H1479       H  0.21449593  0.31716941  0.72328274     0.10200
C1480       C  0.17319475  0.31919224  0.69592632     0.03900
C1481       C  0.16110637  0.33310786  0.68028284    -0.04800
C1482       C  0.16222210  0.32970787  0.65619190    -0.23200
C1483       C  0.17828055  0.31274144  0.64835440     0.13100
C1484       C  0.19084501  0.29933832  0.66406284    -0.12400
N1485       N  0.16941382  0.32249581  0.72002572     0.64800
H1486       H  0.15089531  0.34681147  0.68753006     0.12700
N1487       N  0.18315065  0.30949737  0.62448774     0.61400
H1488       H  0.20323790  0.28704866  0.65746420     0.08800
O1489       O  0.22680350  0.29467889  0.77389931    -0.40000
O1490       O  0.24883809  0.31672008  0.75399147    -0.39200
O1491       O  0.19821144  0.24120385  0.66970893    -0.39200
O1492       O  0.16896426  0.24940409  0.69170570    -0.36900
O1493       O  0.20076856  0.31889783  0.61615671    -0.37800
O1494       O  0.17505433  0.29217830  0.61438627    -0.34000
O1495       O  0.16966671  0.34246694  0.72846960    -0.35400
O1496       O  0.16363297  0.30575128  0.73249193    -0.39700
C1497       C  0.12907853  0.30177157  0.39405901    -0.13400
C1498       C  0.10554092  0.30628457  0.39311387     0.17000
C1499       C  0.09705547  0.31996058  0.37517531     0.03300
C1500       C  0.11239853  0.33097149  0.36030759    -0.11900
C1501       C  0.13653036  0.33039053  0.36389865    -0.02900
C1502       C  0.14451949  0.31266959  0.37900006     0.02600
C1503       C  0.09037156  0.29892478  0.41221908     0.09400
N1504       N  0.07295458  0.32430409  0.37285146     0.65800
H1505       H  0.10485908  0.34110694  0.34673893     0.18700
N1506       N  0.16822870  0.30652139  0.38066229     0.76200
H1507       H  0.13559799  0.29014614  0.40704933     0.10200
C1508       C  0.07353341  0.28181870  0.40955545     0.03900
C1509       C  0.05700610  0.27847954  0.42688947    -0.04800
C1510       C  0.05693271  0.29209354  0.44682938    -0.23200
C1511       C  0.07443419  0.30853863  0.44973201     0.13100
C1512       C  0.09097398  0.31166542  0.43258205    -0.12400
N1513       N  0.07293138  0.26795420  0.38930002     0.64800
H1514       H  0.04382647  0.26565145  0.42447958     0.12700
N1515       N  0.07558405  0.32237392  0.46995564     0.61400
H1516       H  0.10380245  0.32490788  0.43473439     0.08800
O1517       O  0.17689168  0.29397612  0.36521317    -0.40000
O1518       O  0.17777444  0.30700595  0.40007721    -0.39200
O1519       O  0.06214841  0.33462702  0.38860934    -0.39200
O1520       O  0.06321020  0.32076654  0.35388128    -0.36900
O1521       O  0.09028687  0.31769863  0.48511509    -0.37800
O1522       O  0.06556524  0.34164290  0.47036628    -0.34000
O1523       O  0.08946183  0.25460134  0.38475425    -0.35400
O1524       O  0.05492873  0.26712745  0.37736247    -0.39700
C1525       C  0.08751082  0.28082570  0.56365095    -0.13400
C1526       C  0.08081897  0.29486655  0.58217506     0.17000
C1527       C  0.05788878  0.30264980  0.58344979     0.03300
C1528       C  0.04298006  0.29871407  0.56514651    -0.11900
C1529       C  0.05002380  0.28609346  0.54587407    -0.02900
C1530       C  0.07214414  0.27612335  0.54563333     0.02600
C1531       C  0.09850709  0.30625459  0.59654765     0.09400
N1532       N  0.04997850  0.31571631  0.60276957     0.65800
H1533       H  0.02583837  0.30601259  0.56576699     0.18700
N1534       N  0.07995367  0.26318409  0.52627215     0.76200
H1535       H  0.10513852  0.27495736  0.56232152     0.10200
C1536       C  0.11238004  0.29464846  0.61248820     0.03900
C1537       C  0.12822623  0.30702169  0.62587606    -0.04800
C1538       C  0.13105147  0.33116902  0.62357186    -0.23200
C1539       C  0.11631214  0.34246232  0.60737177     0.13100
C1540       C  0.10093670  0.32992450  0.59410500    -0.12400
N1541       N  0.10977036  0.27051804  0.61611178     0.64800
H1542       H  0.13737237  0.29751614  0.63887578     0.12700
N1543       N  0.11554263  0.36688644  0.60463183     0.61400
H1544       H  0.09022579  0.33906314  0.58191226     0.08800
O1545       O  0.08083140  0.24155116  0.52738233    -0.40000
O1546       O  0.08893799  0.27336374  0.50941165    -0.39200
O1547       O  0.04019441  0.33488478  0.59982703    -0.39200
O1548       O  0.05123543  0.30731473  0.62269004    -0.36900
O1549       O  0.09875339  0.37760609  0.61330358    -0.37800
O1550       O  0.12532190  0.37561319  0.58741067    -0.34000
O1551       O  0.12626167  0.25699717  0.61196549    -0.35400
O1552       O  0.09172547  0.26293642  0.62535039    -0.39700
C1553       C  0.06997154  0.41223010  0.30196375    -0.13400
C1554       C  0.08957814  0.41922127  0.31398241     0.17000
C1555       C  0.09199781  0.44268676  0.31977333     0.03300
C1556       C  0.07426371  0.45828064  0.31455548    -0.11900
C1557       C  0.05450861  0.45121919  0.30283890    -0.02900
C1558       C  0.05255714  0.42801898  0.29624874     0.02600
C1559       C  0.10580987  0.40144288  0.32283113     0.09400
N1560       N  0.11225973  0.45084302  0.33102598     0.65800
H1561       H  0.07592448  0.47612090  0.31960133     0.18700
N1562       N  0.03216909  0.41988231  0.28550563     0.76200
H1563       H  0.06777100  0.39423546  0.29777650     0.10200
C1564       C  0.10796931  0.39745680  0.34648753     0.03900
C1565       C  0.12351731  0.38092184  0.35436500    -0.04800
C1566       C  0.13739662  0.36726946  0.33948985    -0.23200
C1567       C  0.13542598  0.37206180  0.31538022     0.13100
C1568       C  0.11943939  0.38864415  0.30761679    -0.12400
N1569       N  0.09386739  0.40946690  0.36282987     0.64800
H1570       H  0.12403566  0.37793820  0.37269599     0.12700
N1571       N  0.14957052  0.36142191  0.29825576     0.61400
H1572       H  0.11811940  0.39208074  0.28939087     0.08800
O1573       O  0.01902155  0.40647472  0.29625537    -0.40000
O1574       O  0.02899606  0.42344380  0.26439962    -0.39200
O1575       O  0.13184421  0.44514229  0.32359713    -0.39200
O1576       O  0.11069599  0.46557833  0.34685933    -0.36900
O1577       O  0.14020116  0.35198420  0.28120365    -0.37800
O1578       O  0.17054548  0.36648050  0.29698703    -0.34000
O1579       O  0.07234434  0.40984376  0.36050232    -0.35400
O1580       O  0.10260068  0.41730065  0.38099759    -0.39700
C1581       C  0.06733426  0.58378747  0.30615234    -0.13400
C1582       C  0.08965677  0.57777077  0.29924239     0.17000
C1583       C  0.09318630  0.55697824  0.28722583     0.03300
C1584       C  0.07458955  0.54208749  0.28349774    -0.11900
C1585       C  0.05270516  0.54734047  0.29229420    -0.02900
C1586       C  0.04900632  0.56874917  0.30294483     0.02600
C1587       C  0.10897642  0.59098538  0.30915646     0.09400
N1588       N  0.11579561  0.54968646  0.28087031     0.65800
H1589       H  0.07767169  0.52554141  0.27549855     0.18700
N1590       N  0.02674421  0.57518158  0.31110269     0.76200
H1591       H  0.06439375  0.59972193  0.31536886     0.10200
C1592       C  0.12477053  0.60388297  0.29620446     0.03900
C1593       C  0.14217464  0.61633391  0.30745691    -0.04800
C1594       C  0.14434249  0.61624022  0.33168590    -0.23200
C1595       C  0.12760976  0.60324068  0.34428577     0.13100
C1596       C  0.11080127  0.59083357  0.33291370    -0.12400
N1597       N  0.12253482  0.60566119  0.27183016     0.64800
H1598       H  0.15300423  0.62708063  0.29702472     0.12700
N1599       N  0.12647590  0.60288249  0.36882779     0.61400
H1600       H  0.09861581  0.58105151  0.34301970     0.08800
O1601       O  0.02298951  0.57664263  0.33238882    -0.40000
O1602       O  0.01205120  0.58278989  0.29714623    -0.39200
O1603       O  0.12981472  0.54348559  0.29615568    -0.39200
O1604       O  0.12066065  0.54638461  0.26001633    -0.36900
O1605       O  0.10954148  0.61251235  0.37840661    -0.37800
O1606       O  0.13652949  0.58695843  0.37951124    -0.34000
O1607       O  0.10435686  0.61378918  0.26327400    -0.35400
O1608       O  0.13965068  0.60188147  0.25903749    -0.39700
C1609       C  0.08547754  0.56718860  0.66188427    -0.13400
C1610       C  0.09291221  0.57840917  0.68181258     0.17000
C1611       C  0.08105736  0.57442210  0.70255817     0.03300
C1612       C  0.06251096  0.55899465  0.70304135    -0.11900
C1613       C  0.05530706  0.54742414  0.68307807    -0.02900
C1614       C  0.06689109  0.55208942  0.66222926     0.02600
C1615       C  0.11178712  0.59551174  0.67952078     0.09400
N1616       N  0.08803692  0.58536708  0.72335296     0.65800
H1617       H  0.05392883  0.55582785  0.71923762     0.18700
N1618       N  0.05991712  0.54191567  0.64106771     0.76200
H1619       H  0.09389259  0.57055561  0.64565238     0.10200
C1620       C  0.13243462  0.58960960  0.66842039     0.03900
C1621       C  0.14604767  0.60691833  0.65882505    -0.04800
C1622       C  0.13899349  0.63033289  0.65896936    -0.23200
C1623       C  0.12228776  0.63597726  0.67605700     0.13100
C1624       C  0.10787337  0.61867062  0.68483930    -0.12400
N1625       N  0.13904947  0.56603024  0.66558702     0.64800
H1626       H  0.16152583  0.60149602  0.65006297     0.12700
N1627       N  0.11866299  0.65900030  0.68373156     0.61400
H1628       H  0.09299611  0.62348154  0.69496727     0.08800
O1629       O  0.07167233  0.52581353  0.63243098    -0.40000
O1630       O  0.04448066  0.55149458  0.62925543    -0.39200
O1631       O  0.07388509  0.59736794  0.73465773    -0.39200
O1632       O  0.10773139  0.58146827  0.73145146    -0.36900
O1633       O  0.09858036  0.66726019  0.68364822    -0.37800
O1634       O  0.13331856  0.66769929  0.69699437    -0.34000
O1635       O  0.14537237  0.55865747  0.64619080    -0.35400
O1636       O  0.13972253  0.55281247  0.68274016    -0.39700
C1637       C  0.09758160  0.37146695  0.67584254    -0.13400
C1638       C  0.09963272  0.39500787  0.67153531     0.17000
C1639       C  0.11773159  0.40263990  0.65766315     0.03300
C1640       C  0.13326056  0.38687835  0.64824994    -0.11900
C1641       C  0.13177437  0.36281640  0.65215156    -0.02900
C1642       C  0.11289949  0.35539651  0.66613134     0.02600
C1643       C  0.08179773  0.41152720  0.67961537     0.09400
N1644       N  0.11934638  0.42628497  0.65111469     0.65800
H1645       H  0.14490538  0.39404245  0.63589702     0.18700
N1646       N  0.10775368  0.33159199  0.66938298     0.76200
H1647       H  0.08338734  0.36536314  0.68618427     0.10200
C1648       C  0.05894243  0.40977358  0.67197977     0.03900
C1649       C  0.04361463  0.42798268  0.67565320    -0.04800
C1650       C  0.05050931  0.44792813  0.68716391    -0.23200
C1651       C  0.07275939  0.44905197  0.69636122     0.13100
C1652       C  0.08825388  0.43089311  0.69250578    -0.12400
N1653       N  0.05148755  0.39036048  0.65903000     0.64800
H1654       H  0.02640947  0.42688746  0.66872861     0.12700
N1655       N  0.08042388  0.46928015  0.70784416     0.61400
H1656       H  0.10574373  0.43242436  0.69854521     0.08800
O1657       O  0.09156877  0.32303435  0.65792576    -0.40000
O1658       O  0.11320551  0.32211785  0.68807117    -0.39200
O1659       O  0.13659547  0.43790186  0.65691290    -0.39200
O1660       O  0.10431147  0.43513314  0.63826234    -0.36900
O1661       O  0.08088259  0.46987242  0.72947468    -0.37800
O1662       O  0.08903407  0.48553963  0.69644020    -0.34000
O1663       O  0.03832327  0.37585254  0.66820096    -0.35400
O1664       O  0.05488441  0.38974442  0.63765203    -0.39700
C1665       C  0.07838213  0.65926296  0.55955791    -0.13400
C1666       C  0.08149165  0.67840822  0.57375267     0.17000
C1667       C  0.06997822  0.69904675  0.56853268     0.03300
C1668       C  0.05539508  0.70015057  0.54937783    -0.11900
C1669       C  0.05193066  0.68079297  0.53531061    -0.02900
C1670       C  0.06398869  0.66025730  0.54040494     0.02600
C1671       C  0.09732354  0.67620397  0.59354657     0.09400
N1672       N  0.07245143  0.71876272  0.58289045     0.65800
H1673       H  0.04625966  0.71602699  0.54589913     0.18700
N1674       N  0.06247435  0.64046422  0.52590652     0.76200
H1675       H  0.08751544  0.64344824  0.56315326     0.10200
C1676       C  0.09051768  0.66444151  0.61333385     0.03900
C1677       C  0.10686235  0.65747762  0.62948713    -0.04800
C1678       C  0.13072543  0.66146899  0.62650016    -0.23200
C1679       C  0.13715810  0.67466578  0.60663674     0.13100
C1680       C  0.12040132  0.68194104  0.59082742    -0.12400
N1681       N  0.06732735  0.65696496  0.61591100     0.64800
H1682       H  0.10033282  0.64649535  0.64266705     0.12700
N1683       N  0.16071803  0.67775268  0.60007369     0.61400
H1684       H  0.12577103  0.69057562  0.57524844     0.08800
O1685       O  0.05636204  0.62142065  0.53420719    -0.40000
O1686       O  0.07012648  0.64129488  0.50563919    -0.39200
O1687       O  0.08324497  0.73605647  0.57566531    -0.39200
O1688       O  0.06165374  0.71992042  0.60165650    -0.36900
O1689       O  0.16757584  0.67007938  0.58097012    -0.37800
O1690       O  0.17334172  0.69152752  0.61086503    -0.34000
O1691       O  0.06159924  0.63734275  0.60879076    -0.35400
O1692       O  0.05344230  0.66859552  0.62788750    -0.39700
C1693       C  0.07902209  0.65410307  0.40991451    -0.13400
C1694       C  0.09477105  0.67184335  0.40690480     0.17000
C1695       C  0.09148475  0.69267232  0.41870456     0.03300
C1696       C  0.07271682  0.69520789  0.43374602    -0.11900
C1697       C  0.05734885  0.67697034  0.43758707    -0.02900
C1698       C  0.06070443  0.65617558  0.42525669     0.02600
C1699       C  0.11491098  0.66717438  0.39208391     0.09400
N1700       N  0.10717331  0.71120224  0.41576855     0.65800
H1701       H  0.07052594  0.71128719  0.44288040     0.18700
N1702       N  0.04595781  0.63677047  0.42805442     0.76200
H1703       H  0.08141046  0.63806309  0.40080457     0.10200
C1704       C  0.13390287  0.65524545  0.40081909     0.03900
C1705       C  0.14962348  0.64484034  0.38582430    -0.04800
C1706       C  0.14741069  0.64617432  0.36153757    -0.23200
C1707       C  0.12876052  0.66007536  0.35315641     0.13100
C1708       C  0.11295139  0.67012114  0.36842957    -0.12400
N1709       N  0.13633367  0.65167661  0.42499554     0.64800
H1710       H  0.16184952  0.63378512  0.39403990     0.12700
N1711       N  0.12407942  0.66245883  0.32915497     0.61400
H1712       H  0.09811024  0.67908627  0.36162343     0.08800
O1713       O  0.04821871  0.62421652  0.44556813    -0.40000
O1714       O  0.03590577  0.62870618  0.41070404    -0.39200
O1715       O  0.10228088  0.72746510  0.40230396    -0.39200
O1716       O  0.12440662  0.71278524  0.42870618    -0.36900
O1717       O  0.10688497  0.65225088  0.32098935    -0.37800
O1718       O  0.13164386  0.67979258  0.31863720    -0.34000
O1719       O  0.12342434  0.63767239  0.43526400    -0.35400
O1720       O  0.15336920  0.65995518  0.43536139    -0.39700
C1721       C  0.92040345  0.70146509  0.54863642    -0.13400
C1722       C  0.92224525  0.68548222  0.56661962     0.17000
C1723       C  0.94177450  0.67103919  0.56760652     0.03300
C1724       C  0.95838561  0.67209406  0.55026126    -0.11900
C1725       C  0.95622392  0.68749935  0.53189275    -0.02900
C1726       C  0.93733708  0.70272615  0.53143480     0.02600
C1727       C  0.90278657  0.68222514  0.58283359     0.09400
N1728       N  0.94447661  0.65435210  0.58543018     0.65800
H1729       H  0.97294301  0.66043890  0.55094612     0.18700
N1730       N  0.93435114  0.71845109  0.51286406     0.76200
H1731       H  0.90543443  0.71253415  0.54760979     0.10200
C1732       C  0.90481163  0.68633221  0.60649870     0.03900
C1733       C  0.88808482  0.67772246  0.62158251    -0.04800
C1734       C  0.87067068  0.66278423  0.61394945    -0.23200
C1735       C  0.86604634  0.66353959  0.58980931     0.13100
C1736       C  0.88254428  0.67250851  0.57467503    -0.12400
N1737       N  0.92436670  0.69800653  0.61555275     0.64800
H1738       H  0.89087352  0.67998373  0.63959998     0.12700
N1739       N  0.84484051  0.65602258  0.58007320     0.61400
H1740       H  0.87992481  0.67102054  0.55633166     0.08800
O1741       O  0.93721453  0.73967451  0.51609956    -0.40000
O1742       O  0.92593338  0.71153567  0.49419667    -0.39200
O1743       O  0.93325176  0.63593224  0.58450959    -0.39200
O1744       O  0.96164320  0.65543839  0.59851226    -0.36900
O1745       O  0.82731721  0.66860218  0.58244031    -0.37800
O1746       O  0.84537530  0.64204180  0.56352355    -0.34000
O1747       O  0.92957468  0.71769020  0.60817729    -0.35400
O1748       O  0.93540053  0.68947959  0.63212853    -0.39700
C1749       C  0.92205020  0.56304583  0.66331546    -0.13400
C1750       C  0.92182613  0.58246969  0.67739787     0.17000
C1751       C  0.93741439  0.58395419  0.69575670     0.03300
C1752       C  0.95369030  0.56634813  0.69910970    -0.11900
C1753       C  0.95478280  0.54751993  0.68402699    -0.02900
C1754       C  0.93831843  0.54569899  0.66640466     0.02600
C1755       C  0.90690234  0.60178401  0.67041503     0.09400
N1756       N  0.93723122  0.60342595  0.71067175     0.65800
H1757       H  0.96610986  0.56791337  0.71280800     0.18700
N1758       N  0.93783455  0.52622694  0.65149151     0.76200
H1759       H  0.91000672  0.56176227  0.64923268     0.10200
C1760       C  0.91536403  0.61842800  0.65532199     0.03900
C1761       C  0.90019238  0.63294197  0.64370563    -0.04800
C1762       C  0.87604940  0.63202719  0.64703000    -0.23200
C1763       C  0.86792269  0.61550151  0.66337534     0.13100
C1764       C  0.88335067  0.60069483  0.67457956    -0.12400
N1765       N  0.93920765  0.61892296  0.64941195     0.64800
H1766       H  0.90791394  0.64274619  0.63018141     0.12700
N1767       N  0.84397283  0.61229980  0.66785354     0.61400
H1768       H  0.87674551  0.58746474  0.68585743     0.08800
O1769       O  0.94483515  0.52815092  0.63107729    -0.40000
O1770       O  0.92640256  0.50880204  0.65723538    -0.39200
O1771       O  0.92693947  0.60231980  0.72971153    -0.39200
O1772       O  0.95004180  0.62030962  0.70642072    -0.36900
O1773       O  0.83497744  0.59328595  0.66280343    -0.37800
O1774       O  0.83400948  0.62498302  0.68237520    -0.34000
O1775       O  0.94725404  0.60436187  0.63545746    -0.35400
O1776       O  0.95124727  0.63590055  0.65519869    -0.39700
C1777       C  0.81998348  0.55022300  0.58184201    -0.13400
C1778       C  0.81257315  0.57291221  0.57832368     0.17000
C1779       C  0.79829886  0.57787781  0.55936411     0.03300
C1780       C  0.79271923  0.56030708  0.54375942    -0.11900
C1781       C  0.80195115  0.53813951  0.54629521    -0.02900
C1782       C  0.81508600  0.53298006  0.56590828     0.02600
C1783       C  0.82309959  0.59127902  0.59248554     0.09400
N1784       N  0.79132478  0.60095683  0.55442034     0.65800
H1785       H  0.78290627  0.56449009  0.52854653     0.18700
N1786       N  0.82447227  0.51049383  0.56932521     0.76200
H1787       H  0.83093570  0.54620273  0.59631287     0.10200
C1788       C  0.81071983  0.60487293  0.60814989     0.03900
C1789       C  0.82210609  0.62168288  0.62119085    -0.04800
C1790       C  0.84586866  0.62640869  0.61830414    -0.23200
C1791       C  0.85814323  0.61114846  0.60322428     0.13100
C1792       C  0.84667280  0.59437347  0.59060915    -0.12400
N1793       N  0.78678324  0.60107954  0.61185210     0.64800
H1794       H  0.81211817  0.62983133  0.63448327     0.12700
N1795       N  0.88244043  0.61202715  0.60014769     0.61400
H1796       H  0.85648654  0.58353264  0.57899867     0.08800
O1797       O  0.81587961  0.49757164  0.58441276    -0.40000
O1798       O  0.84374650  0.50542933  0.56074243    -0.39200
O1799       O  0.80620871  0.61568978  0.54906914    -0.39200
O1800       O  0.77037328  0.60552456  0.55133884    -0.36900
O1801       O  0.88999383  0.62022437  0.58160293    -0.37800
O1802       O  0.89447745  0.59706809  0.61025295    -0.34000
O1803       O  0.78014072  0.58261755  0.62100271    -0.35400
O1804       O  0.77259231  0.61719104  0.60858228    -0.39700
C1805       C  0.78095511  0.71722050  0.68340453    -0.13400
C1806       C  0.79502597  0.69950820  0.69173024     0.17000
C1807       C  0.79412104  0.69462532  0.71547946     0.03300
C1808       C  0.78143207  0.70895577  0.73028304    -0.11900
C1809       C  0.76767384  0.72743388  0.72227741    -0.02900
C1810       C  0.76591433  0.72970845  0.69773115     0.02600
C1811       C  0.81138996  0.68716300  0.67579093     0.09400
N1812       N  0.80574747  0.67499537  0.72489638     0.65800
H1813       H  0.78238814  0.70558298  0.74852838     0.18700
N1814       N  0.74818884  0.74262257  0.68640240     0.76200
H1815       H  0.78102822  0.72106631  0.66525361     0.10200
C1816       C  0.80567331  0.68081506  0.65309712     0.03900
C1817       C  0.82226063  0.67033477  0.63892726    -0.04800
C1818       C  0.84342915  0.66209762  0.64742160    -0.23200
C1819       C  0.84983614  0.67067456  0.66964111     0.13100
C1820       C  0.83396966  0.68312609  0.68299730    -0.12400
N1821       N  0.78277510  0.68336246  0.64448018     0.64800
H1822       H  0.81730769  0.66641015  0.62165017     0.12700
N1823       N  0.87233967  0.66804554  0.67916539     0.61400
H1824       H  0.83951409  0.68963980  0.69947805     0.08800
O1825       O  0.75323788  0.75475317  0.66916647    -0.40000
O1826       O  0.72758831  0.73659221  0.68886231    -0.39200
O1827       O  0.81674383  0.67671543  0.74343772    -0.39200
O1828       O  0.80334095  0.65546656  0.71581369    -0.36900
O1829       O  0.88521918  0.68540444  0.67945478    -0.37800
O1830       O  0.87531387  0.65303764  0.69450864    -0.34000
O1831       O  0.77949843  0.69108880  0.62450982    -0.35400
O1832       O  0.76609427  0.67510680  0.65554796    -0.39700
C1833       C  0.90259463  0.64420494  0.38782974    -0.13400
C1834       C  0.90594154  0.66783706  0.38639690     0.17000
C1835       C  0.89109923  0.68113694  0.37263780     0.03300
C1836       C  0.87252114  0.67049257  0.36152054    -0.11900
C1837       C  0.86849882  0.64656160  0.36339419    -0.02900
C1838       C  0.88499340  0.63335871  0.37613116     0.02600
C1839       C  0.92539510  0.67733761  0.39968970     0.09400
N1840       N  0.89538163  0.70506791  0.36870966     0.65800
H1841       H  0.86218151  0.68103467  0.35035221     0.18700
N1842       N  0.88486895  0.60873153  0.37700930     0.76200
H1843       H  0.91416457  0.63374740  0.39803016     0.10200
C1844       C  0.92216018  0.69321764  0.41778662     0.03900
C1845       C  0.94022021  0.69737927  0.43318756    -0.04800
C1846       C  0.96095212  0.68511285  0.43140326    -0.23200
C1847       C  0.96459642  0.67054853  0.41245613     0.13100
C1848       C  0.94703603  0.66709213  0.39664107    -0.12400
N1849       N  0.90016153  0.70342898  0.42212765     0.64800
H1850       H  0.93728450  0.70854827  0.44778245     0.12700
N1851       N  0.98577896  0.65840263  0.40957639     0.61400
H1852       H  0.94983099  0.65511560  0.38264038     0.08800
O1853       O  0.87740447  0.59887832  0.39477151    -0.40000
O1854       O  0.89943399  0.59805230  0.36500273    -0.39200
O1855       O  0.91528840  0.71170198  0.36340472    -0.39200
O1856       O  0.87888085  0.71917519  0.36782085    -0.36900
O1857       O  0.98604077  0.63673676  0.41040116    -0.37800
O1858       O  0.00327321  0.66897978  0.40252299    -0.34000
O1859       O  0.88306987  0.69086198  0.42631243    -0.35400
O1860       O  0.89843034  0.72489010  0.42476818    -0.39700
C1861       C  0.82119057  0.60585966  0.40447222    -0.13400
C1862       C  0.80542832  0.59119879  0.39430855     0.17000
C1863       C  0.80006408  0.59441333  0.37098871     0.03300
C1864       C  0.81349753  0.60951934  0.35762464    -0.11900
C1865       C  0.83230375  0.62171896  0.36695487    -0.02900
C1866       C  0.83361068  0.62200528  0.39178695     0.02600
C1867       C  0.79664272  0.57196585  0.40869587     0.09400
N1868       N  0.78100216  0.58277604  0.36081135     0.65800
H1869       H  0.81000231  0.61078805  0.33943087     0.18700
N1870       N  0.84675255  0.63813932  0.40510454     0.76200
H1871       H  0.82394522  0.60467882  0.42282798     0.10200
C1872       C  0.80597539  0.54958921  0.40621837     0.03900
C1873       C  0.80431865  0.53389537  0.42433847    -0.04800
C1874       C  0.79330958  0.53972749  0.44487915    -0.23200
C1875       C  0.78258573  0.56132830  0.44693631     0.13100
C1876       C  0.78444765  0.57732017  0.42894303    -0.12400
N1877       N  0.81895450  0.54306935  0.38635270     0.64800
H1878       H  0.81248214  0.51718182  0.42267965     0.12700
N1879       N  0.77188589  0.56805794  0.46798953     0.61400
H1880       H  0.77777745  0.59456239  0.43142545     0.08800
O1881       O  0.85826347  0.63103580  0.42203472    -0.40000
O1882       O  0.84193816  0.65922765  0.40432271    -0.39200
O1883       O  0.76194322  0.58229723  0.37113979    -0.39200
O1884       O  0.78227888  0.57545624  0.34045595    -0.36900
O1885       O  0.78203123  0.58159139  0.48143800    -0.37800
O1886       O  0.75154538  0.56205972  0.47223550    -0.34000
O1887       O  0.83837686  0.53368543  0.38880942    -0.35400
O1888       O  0.80900023  0.54153834  0.36724228    -0.39700
C1889       C  0.88072177  0.58209317  0.31891380    -0.13400
C1890       C  0.89880336  0.59372206  0.30825523     0.17000
C1891       C  0.89797228  0.61787143  0.30749074     0.03300
C1892       C  0.88055725  0.62962715  0.31949635    -0.11900
C1893       C  0.86364941  0.61828235  0.33305217    -0.02900
C1894       C  0.86335753  0.59375541  0.33118672     0.02600
C1895       C  0.91938541  0.58017201  0.30073127     0.09400
N1896       N  0.91469346  0.63074351  0.29476522     0.65800
H1897       H  0.88069218  0.64822614  0.31900383     0.18700
N1898       N  0.84710834  0.57971800  0.34271041     0.76200
H1899       H  0.88095732  0.56346501  0.31919415     0.10200
C1900       C  0.94075095  0.58271654  0.31185719     0.03900
C1901       C  0.95831268  0.56666836  0.30805108    -0.04800
C1902       C  0.95559739  0.54827331  0.29278276    -0.23200
C1903       C  0.93503561  0.54668914  0.28023803     0.13100
C1904       C  0.91700192  0.56236574  0.28454222    -0.12400
N1905       N  0.94447591  0.60037424  0.32846306     0.64800
H1906       H  0.97394970  0.56807901  0.31794134     0.12700
N1907       N  0.93150459  0.52818688  0.26457955     0.61400
H1908       H  0.90076126  0.56011574  0.27585359     0.08800
O1909       O  0.85160491  0.57290711  0.36273079    -0.40000
O1910       O  0.83298968  0.56848830  0.33083045    -0.39200
O1911       O  0.92162901  0.62365623  0.27546983    -0.39200
O1912       O  0.92114526  0.65016681  0.30183982    -0.36900
O1913       O  0.92223429  0.50987963  0.27143340    -0.37800
O1914       O  0.93544591  0.53101937  0.24347491    -0.34000
O1915       O  0.94316472  0.59533328  0.34946540    -0.35400
O1916       O  0.95586934  0.61781187  0.32264879    -0.39700
C1917       C  0.80713656  0.68402571  0.32944289    -0.13400
C1918       C  0.80664034  0.68104383  0.30565234     0.17000
C1919       C  0.81866243  0.66218471  0.29627480     0.03300
C1920       C  0.83118801  0.64734840  0.31059823    -0.11900
C1921       C  0.83348969  0.65101400  0.33464246    -0.02900
C1922       C  0.81981144  0.66933582  0.34386971     0.02600
C1923       C  0.79163017  0.69625125  0.29121361     0.09400
N1924       N  0.81851971  0.65784219  0.27206938     0.65800
H1925       H  0.83904922  0.63276202  0.30221502     0.18700
N1926       N  0.81753892  0.67318285  0.36789795     0.76200
H1927       H  0.79682918  0.69753976  0.33715229     0.10200
C1928       C  0.79207940  0.72039466  0.29278924     0.03900
C1929       C  0.77739113  0.73376975  0.27909640    -0.04800
C1930       C  0.76274939  0.72407689  0.26230912    -0.23200
C1931       C  0.76101671  0.69933487  0.26245141     0.13100
C1932       C  0.77551789  0.68622905  0.27663127    -0.12400
N1933       N  0.80808635  0.73173714  0.30746180     0.64800
H1934       H  0.77860684  0.75228831  0.28048885     0.12700
N1935       N  0.74451952  0.68658300  0.24942021     0.61400
H1936       H  0.77376768  0.66770102  0.27659478     0.08800
O1937       O  0.82451543  0.69202606  0.37596472    -0.40000
O1938       O  0.80187600  0.66266658  0.37850803    -0.39200
O1939       O  0.82527567  0.67306068  0.25822064    -0.39200
O1940       O  0.81293537  0.63831194  0.26457704    -0.36900
O1941       O  0.75130461  0.66977352  0.23743917    -0.37800
O1942       O  0.72362574  0.68745554  0.25498052    -0.34000
O1943       O  0.82936159  0.72887206  0.30444537    -0.35400
O1944       O  0.80109026  0.74645285  0.32180878    -0.39700
C1945       C  0.82452397  0.39482053  0.37231241    -0.13400
C1946       C  0.82728511  0.39324293  0.39603039     0.17000
C1947       C  0.83995772  0.37481253  0.40507469     0.03300
C1948       C  0.85005775  0.35857998  0.39033968    -0.11900
C1949       C  0.84801329  0.35992057  0.36608556    -0.02900
C1950       C  0.83459684  0.37877055  0.35733019     0.02600
C1951       C  0.81858744  0.41201874  0.41107068     0.09400
N1952       N  0.84470392  0.37359715  0.42914024     0.65800
H1953       H  0.86154711  0.34666598  0.39848190     0.18700
N1954       N  0.83208115  0.38299624  0.33321758     0.76200
H1955       H  0.81488744  0.40912981  0.36524460     0.10200
C1956       C  0.82758978  0.43437422  0.40925348     0.03900
C1957       C  0.82099773  0.45124226  0.42508835    -0.04800
C1958       C  0.80543010  0.44639987  0.44286822    -0.23200
C1959       C  0.79510455  0.42454903  0.44367423     0.13100
C1960       C  0.80199181  0.40744296  0.42800095    -0.12400
N1961       N  0.84467668  0.43976627  0.39243678     0.64800
H1962       H  0.82900639  0.46798862  0.42415972     0.12700
N1963       N  0.77866037  0.41909658  0.46104120     0.61400
H1964       H  0.79469985  0.39040413  0.42929933     0.08800
O1965       O  0.81781530  0.37152849  0.32178418    -0.40000
O1966       O  0.83905098  0.40182462  0.32509318    -0.39200
O1967       O  0.83969367  0.35573331  0.44030469    -0.39200
O1968       O  0.85617309  0.38924928  0.43866364    -0.36900
O1969       O  0.75806813  0.42546699  0.45873070    -0.37800
O1970       O  0.78393219  0.40538105  0.47696129    -0.34000
O1971       O  0.84100486  0.45551964  0.37801442    -0.35400
O1972       O  0.86441171  0.43086897  0.39380535    -0.39700
C1973       C  0.91475318  0.30739767  0.37058284    -0.13400
C1974       C  0.90588867  0.29895891  0.39116611     0.17000
C1975       C  0.88202029  0.29937036  0.39443019     0.03300
C1976       C  0.86792189  0.31088249  0.37861631    -0.11900
C1977       C  0.87732328  0.32466467  0.36102735    -0.02900
C1978       C  0.90080906  0.31959984  0.35512103     0.02600
C1979       C  0.92194474  0.29400313  0.41031767     0.09400
N1980       N  0.87203955  0.28964874  0.41459519     0.65800
H1981       H  0.84983317  0.31153541  0.38214604     0.18700
N1982       N  0.91116664  0.32636297  0.33386122     0.76200
H1983       H  0.93297526  0.30580661  0.36711399     0.10200
C1984       C  0.93732842  0.27521808  0.41006809     0.03900
C1985       C  0.95445415  0.27340568  0.42701155    -0.04800
C1986       C  0.95679108  0.29038205  0.44403393    -0.23200
C1987       C  0.94113312  0.30905464  0.44421645     0.13100
C1988       C  0.92392806  0.31057046  0.42759978    -0.12400
N1989       N  0.93577615  0.25798337  0.39268239     0.64800
H1990       H  0.96621416  0.25892982  0.42659669     0.12700
N1991       N  0.94239818  0.32672006  0.46119705     0.61400
H1992       H  0.91250061  0.32533649  0.42769002     0.08800
O1993       O  0.92740924  0.34061123  0.33431468    -0.40000
O1994       O  0.91036390  0.31250819  0.31724221    -0.39200
O1995       O  0.86793211  0.30223762  0.43176672    -0.39200
O1996       O  0.86440571  0.26941707  0.41407439    -0.36900
O1997       O  0.92847635  0.32664498  0.47780832    -0.37800
O1998       O  0.95383263  0.34460538  0.45706491    -0.34000
O1999       O  0.95219496  0.25487551  0.37884718    -0.35400
O2000       O  0.91878106  0.24465210  0.39228388    -0.39700
C2001       C  0.90736170  0.39204861  0.34096080    -0.13400
C2002       C  0.90518154  0.39812620  0.31794887     0.17000
C2003       C  0.89010975  0.38536604  0.30407996     0.03300
C2004       C  0.87697273  0.36743843  0.31374370    -0.11900
C2005       C  0.87832357  0.36169456  0.33738794    -0.02900
C2006       C  0.89415291  0.37480651  0.35091347     0.02600
C2007       C  0.91927753  0.41782913  0.30950949     0.09400
N2008       N  0.88686356  0.39127174  0.28049324     0.65800
H2009       H  0.86446951  0.35946892  0.30277321     0.18700
N2010       N  0.89670057  0.37181763  0.37518575     0.76200
H2011       H  0.91936620  0.40122947  0.35173209     0.10200
C2012       C  0.91987113  0.43861292  0.32208135     0.03900
C2013       C  0.93733914  0.45454215  0.31798875    -0.04800
C2014       C  0.95368578  0.45109793  0.30059724    -0.23200
C2015       C  0.95179125  0.43136305  0.28644357     0.13100
C2016       C  0.93501274  0.41468970  0.29145589    -0.12400
N2017       N  0.90301017  0.44354320  0.33940055     0.64800
H2018       H  0.93800925  0.46994188  0.32842257     0.12700
N2019       N  0.96731344  0.42734820  0.26772936     0.61400
H2020       H  0.93476508  0.39886310  0.28167788     0.08800
O2021       O  0.91207013  0.35837657  0.38247445    -0.40000
O2022       O  0.89027823  0.38800275  0.38814948    -0.39200
O2023       O  0.89044385  0.37646062  0.26505968    -0.39200
O2024       O  0.87807132  0.41041675  0.27524490    -0.36900
O2025       O  0.97710208  0.40804700  0.26577927    -0.37800
O2026       O  0.96721083  0.44081290  0.25075883    -0.34000
O2027       O  0.90909346  0.45083813  0.35883855    -0.35400
O2028       O  0.88192258  0.44191579  0.33484488    -0.39700
C2029       C  0.80783428  0.31177850  0.32422471    -0.13400
C2030       C  0.81695986  0.30075860  0.30486185     0.17000
C2031       C  0.84032502  0.30439546  0.29970248     0.03300
C2032       C  0.85370034  0.31873019  0.31375630    -0.11900
C2033       C  0.84493968  0.32996871  0.33346722    -0.02900
C2034       C  0.82135497  0.32506633  0.33904985     0.02600
C2035       C  0.80177175  0.28559138  0.29048756     0.09400
N2036       N  0.85111198  0.29295546  0.28074455     0.65800
H2037       H  0.87140558  0.32083394  0.30916234     0.18700
N2038       N  0.81046369  0.33229279  0.35993749     0.76200
H2039       H  0.78988082  0.30948859  0.32845864     0.10200
C2040       C  0.78678022  0.26938824  0.30051325     0.03900
C2041       C  0.77192245  0.25646711  0.28666792    -0.04800
C2042       C  0.77279030  0.25716025  0.26238753    -0.23200
C2043       C  0.78694848  0.27466665  0.25257794     0.13100
C2044       C  0.80102726  0.28838356  0.26656986    -0.12400
N2045       N  0.78701121  0.26503784  0.32474571     0.64800
H2046       H  0.76011200  0.24533135  0.29548109     0.12700
N2047       N  0.78729331  0.27898311  0.22838980     0.61400
H2048       H  0.81139742  0.30154007  0.25855247     0.08800
O2049       O  0.80996294  0.31846675  0.37659329    -0.40000
O2050       O  0.79507472  0.34759522  0.35892732    -0.39200
O2051       O  0.86214013  0.30439562  0.26603300    -0.39200
O2052       O  0.85160373  0.27128686  0.27993734    -0.36900
O2053       O  0.77445246  0.29457362  0.22045275    -0.37800
O2054       O  0.80456214  0.27278944  0.21678840    -0.34000
O2055       O  0.76839398  0.26369140  0.33577597    -0.35400
O2056       O  0.80563681  0.26025347  0.33470729    -0.39700
C2057       C  0.94133689  0.41430221  0.70302858    -0.13400
C2058       C  0.92444366  0.41444089  0.68588858     0.17000
C2059       C  0.92281363  0.43346328  0.67105122     0.03300
C2060       C  0.93878905  0.45123462  0.67250721    -0.11900
C2061       C  0.95619059  0.45088113  0.68908309    -0.02900
C2062       C  0.95708706  0.43245776  0.70485584     0.02600
C2063       C  0.91057639  0.39365370  0.68118230     0.09400
N2064       N  0.90564933  0.43436049  0.65361388     0.65800
H2065       H  0.93782361  0.46520076  0.66028235     0.18700
N2066       N  0.97485121  0.43112155  0.72167945     0.76200
H2067       H  0.94289657  0.39961559  0.71434954     0.10200
C2068       C  0.92047160  0.37456787  0.67012839     0.03900
C2069       C  0.90631820  0.35798505  0.66013336    -0.04800
C2070       C  0.88211860  0.36063917  0.65973436    -0.23200
C2071       C  0.87271445  0.37678072  0.67571278     0.13100
C2072       C  0.88688467  0.39380911  0.68520095    -0.12400
N2073       N  0.94479934  0.37283442  0.66708161     0.64800
H2074       H  0.91472203  0.34398497  0.65123314     0.12700
N2075       N  0.84868617  0.37755484  0.68082308     0.61400
H2076       H  0.87924619  0.40771418  0.69500380     0.08800
O2077       O  0.99537395  0.42761703  0.71558964    -0.40000
O2078       O  0.96996908  0.43290649  0.74271121    -0.39200
O2079       O  0.88699465  0.44480071  0.65739940    -0.39200
O2080       O  0.91018322  0.42721886  0.63366438    -0.36900
O2081       O  0.84076506  0.36372922  0.69547869    -0.37800
O2082       O  0.83728921  0.39544059  0.67613992    -0.34000
O2083       O  0.95567878  0.35621594  0.67581120    -0.35400
O2084       O  0.95504730  0.38651512  0.65379208    -0.39700
C2085       C  0.83008614  0.36989751  0.59065975    -0.13400
C2086       C  0.83277883  0.39361715  0.59245140     0.17000
C2087       C  0.84482530  0.40261519  0.61112720     0.03300
C2088       C  0.85490697  0.38780451  0.62713441    -0.11900
C2089       C  0.85299369  0.36349792  0.62568904    -0.02900
C2090       C  0.83997924  0.35482051  0.60667033     0.02600
C2091       C  0.82486350  0.40880654  0.57367147     0.09400
N2092       N  0.84832768  0.42685212  0.61327434     0.65800
H2093       H  0.86590986  0.39604033  0.63931149     0.18700
N2094       N  0.83815512  0.33074965  0.60194692     0.76200
H2095       H  0.82098323  0.36290193  0.57607308     0.10200
C2096       C  0.83853455  0.41187043  0.55396652     0.03900
C2097       C  0.83254843  0.42863574  0.53784678    -0.04800
C2098       C  0.81262659  0.44206988  0.54049871    -0.23200
C2099       C  0.79835982  0.43828967  0.55980169     0.13100
C2100       C  0.80485683  0.42203013  0.57642555    -0.12400
N2101       N  0.85906463  0.39869356  0.55057408     0.64800
H2102       H  0.84360198  0.43113661  0.52307819     0.12700
N2103       N  0.77783666  0.45142660  0.56330145     0.61400
H2104       H  0.79438599  0.41986000  0.59166062     0.08800
O2105       O  0.84940366  0.32262193  0.58525645    -0.40000
O2106       O  0.82052656  0.32013923  0.60857783    -0.39200
O2107       O  0.84121164  0.43730472  0.63090280    -0.39200
O2108       O  0.86075374  0.43727831  0.59893154    -0.36900
O2109       O  0.76005090  0.44657534  0.55204162    -0.37800
O2110       O  0.77622057  0.46465669  0.58038995    -0.34000
O2111       O  0.85777476  0.37755424  0.54596651    -0.35400
O2112       O  0.87811899  0.40873980  0.54880121    -0.39700
C2113       C  0.94043644  0.28198435  0.57870496    -0.13400
C2114       C  0.92104910  0.29528393  0.57311484     0.17000
C2115       C  0.91739731  0.30153556  0.55001928     0.03300
C2116       C  0.93403378  0.29636946  0.53345605    -0.11900
C2117       C  0.95411156  0.28442588  0.53922842    -0.02900
C2118       C  0.95689287  0.27632610  0.56186093     0.02600
C2119       C  0.90789299  0.30711440  0.59157894     0.09400
N2120       N  0.89749038  0.31444257  0.54348818     0.65800
H2121       H  0.93167747  0.30249815  0.51608226     0.18700
N2122       N  0.97738711  0.26451756  0.56845716     0.76200
H2123       H  0.94361082  0.27738685  0.59643342     0.10200
C2124       C  0.89367905  0.29562316  0.60725866     0.03900
C2125       C  0.88100007  0.30824550  0.62362059    -0.04800
C2126       C  0.88243171  0.33257076  0.62525103    -0.23200
C2127       C  0.89737613  0.34370727  0.60913833     0.13100
C2128       C  0.90980677  0.33091972  0.59306175    -0.12400
N2129       N  0.89100344  0.27126260  0.60602159     0.64800
H2130       H  0.86915851  0.29868238  0.63412119     0.12700
N2131       N  0.89926571  0.36817496  0.60752056     0.61400
H2132       H  0.92084001  0.33991409  0.58107590     0.08800
O2133       O  0.97922343  0.24318945  0.56498794    -0.40000
O2134       O  0.99215533  0.27464103  0.58052381    -0.39200
O2135       O  0.89962653  0.33359666  0.53357835    -0.39200
O2136       O  0.87782583  0.30576231  0.54575286    -0.36900
O2137       O  0.88958024  0.37808734  0.59088044    -0.37800
O2138       O  0.91639419  0.37780746  0.61643453    -0.34000
O2139       O  0.89731023  0.25878384  0.62256782    -0.35400
O2140       O  0.88021683  0.26245529  0.58950088    -0.39700
C2141       C  0.84324488  0.30149468  0.68596378    -0.13400
C2142       C  0.81946408  0.30279671  0.68252782     0.17000
C2143       C  0.81097398  0.31939639  0.66711629     0.03300
C2144       C  0.82615582  0.33392683  0.65540494    -0.11900
C2145       C  0.85033196  0.33155800  0.65699268    -0.02900
C2146       C  0.85858989  0.31565346  0.67380072     0.02600
C2147       C  0.80363934  0.28846056  0.69686855     0.09400
N2148       N  0.78687443  0.32141006  0.66269453     0.65800
H2149       H  0.81842692  0.34704764  0.64485966     0.18700
N2150       N  0.88226866  0.31482028  0.68019969     0.76200
H2151       H  0.84999059  0.28980461  0.69877726     0.10200
C2152       C  0.80517196  0.26439527  0.69739782     0.03900
C2153       C  0.79067340  0.25170632  0.71188348    -0.04800
C2154       C  0.77434538  0.26211598  0.72677150    -0.23200
C2155       C  0.77148281  0.28655947  0.72419798     0.13100
C2156       C  0.78669002  0.29913153  0.71022604    -0.12400
N2157       N  0.82120529  0.25247957  0.68303079     0.64800
H2158       H  0.79271873  0.23335581  0.71182607     0.12700
N2159       N  0.75287355  0.29931386  0.73413801     0.61400
H2160       H  0.78483459  0.31764822  0.70936822     0.08800
O2161       O  0.88823291  0.32388855  0.69891489    -0.40000
O2162       O  0.89553683  0.30041945  0.67080332    -0.39200
O2163       O  0.77710338  0.34079262  0.66370736    -0.39200
O2164       O  0.77587135  0.30428680  0.65541107    -0.36900
O2165       O  0.75716628  0.31778622  0.74459229    -0.37800
O2166       O  0.73270075  0.29594507  0.72716978    -0.34000
O2167       O  0.83804976  0.24203877  0.69181534    -0.35400
O2168       O  0.81715291  0.25026359  0.66189501    -0.39700
C2169       C  0.60621115  0.87344587  0.68972240    -0.13400
C2170       C  0.59614044  0.89084998  0.67649929     0.17000
C2171       C  0.60380577  0.89412727  0.65387829     0.03300
C2172       C  0.62056033  0.87960716  0.64497379    -0.11900
C2173       C  0.63194295  0.86242439  0.65779911    -0.02900
C2174       C  0.62364606  0.85899084  0.68080905     0.02600
C2175       C  0.57716130  0.90533717  0.68570791     0.09400
N2176       N  0.59522039  0.91263532  0.63995841     0.65800
H2177       H  0.62572302  0.88270935  0.62720108     0.18700
N2178       N  0.63131110  0.84059788  0.69523048     0.76200
H2179       H  0.59993758  0.87057030  0.70705895     0.10200
C2180       C  0.55591601  0.90652942  0.67410557     0.03900
C2181       C  0.54136213  0.92539684  0.67788322    -0.04800
C2182       C  0.54691957  0.94252632  0.69384154    -0.23200
C2183       C  0.56675692  0.93979424  0.70738018     0.13100
C2184       C  0.58190047  0.92142917  0.70298789    -0.12400
N2185       N  0.54951253  0.88929992  0.65768856     0.64800
H2186       H  0.52567851  0.92689208  0.66803865     0.12700
N2187       N  0.57274837  0.95654042  0.72420175     0.61400
H2188       H  0.59810709  0.92061689  0.71201505     0.08800
O2189       O  0.62374077  0.82060719  0.69195223    -0.40000
O2190       O  0.63976203  0.84535107  0.71456336    -0.39200
O2191       O  0.59459299  0.93284872  0.64777966    -0.39200
O2192       O  0.59100606  0.90933571  0.61896523    -0.36900
O2193       O  0.56598953  0.95414035  0.74464299    -0.37800
O2194       O  0.58733533  0.97176498  0.71944345    -0.34000
O2195       O  0.55301392  0.86830863  0.66195519    -0.35400
O2196       O  0.53861046  0.89481821  0.63981186    -0.39700
C2197       C  0.69836836  0.87483596  0.60511519    -0.13400
C2198       C  0.69479079  0.89836947  0.60915476     0.17000
C2199       C  0.68309268  0.90477596  0.62940538     0.03300
C2200       C  0.67069588  0.88824749  0.64164289    -0.11900
C2201       C  0.66983524  0.86499823  0.63449719    -0.02900
C2202       C  0.68734093  0.85809198  0.61870622     0.02600
C2203       C  0.69896712  0.91579153  0.59065342     0.09400
N2204       N  0.68294938  0.92820046  0.63715982     0.65800
H2205       H  0.66139152  0.89398549  0.65667430     0.18700
N2206       N  0.69333952  0.83446699  0.61529595     0.76200
H2207       H  0.70864044  0.86929005  0.59062668     0.10200
C2208       C  0.71918169  0.91676600  0.57714904     0.03900
C2209       C  0.72089709  0.93296450  0.55919281    -0.04800
C2210       C  0.70286801  0.94841981  0.55439686    -0.23200
C2211       C  0.68270415  0.94720542  0.56791045     0.13100
C2212       C  0.68089015  0.93092688  0.58537178    -0.12400
N2213       N  0.73816422  0.90171472  0.58150653     0.64800
H2214       H  0.73643189  0.93343422  0.54895541     0.12700
N2215       N  0.66373734  0.96244556  0.56428381     0.61400
H2216       H  0.66487055  0.93001691  0.59480983     0.08800
O2217       O  0.69356199  0.82629589  0.59523413    -0.40000
O2218       O  0.70499659  0.82444574  0.63054828    -0.39200
O2219       O  0.66494548  0.93699219  0.64556785    -0.39200
O2220       O  0.70118541  0.93979973  0.63672175    -0.36900
O2221       O  0.64599470  0.95527848  0.55426964    -0.37800
O2222       O  0.66340263  0.98184602  0.57395120    -0.34000
O2223       O  0.74661389  0.88982116  0.56542527    -0.35400
O2224       O  0.74769953  0.90167661  0.60091501    -0.39700
C2225       C  0.61885357  0.83182200  0.58704523    -0.13400
C2226       C  0.60188713  0.81742817  0.59575085     0.17000
C2227       C  0.60218528  0.81175806  0.61901476     0.03300
C2228       C  0.61871313  0.82139990  0.63334306    -0.11900
C2229       C  0.63622439  0.83628837  0.62529605    -0.02900
C2230       C  0.63550324  0.84184220  0.60114456     0.02600
C2231       C  0.58251663  0.81106012  0.58068665     0.09400
N2232       N  0.58501509  0.79720363  0.62865183     0.65800
H2233       H  0.61762420  0.81731500  0.65131026     0.18700
N2234       N  0.64941030  0.85889617  0.59020425     0.76200
H2235       H  0.61823977  0.83660095  0.56906931     0.10200
C2236       C  0.56839889  0.82832607  0.57127527     0.03900
C2237       C  0.55203262  0.82261270  0.55484455    -0.04800
C2238       C  0.54885162  0.79974038  0.54775188    -0.23200
C2239       C  0.56234523  0.78228317  0.55801273     0.13100
C2240       C  0.57919419  0.78811603  0.57417950    -0.12400
N2241       N  0.57059180  0.85181986  0.57823341     0.64800
H2242       H  0.54168309  0.83633350  0.54764837     0.12700
N2243       N  0.55962155  0.75870279  0.55186220     0.61400
H2244       H  0.59005685  0.77475349  0.58128985     0.08800
O2245       O  0.64371910  0.87976996  0.59190096    -0.40000
O2246       O  0.66125822  0.85297364  0.57300341    -0.39200
O2247       O  0.58859461  0.77584061  0.62988963    -0.39200
O2248       O  0.56816829  0.80595590  0.63918844    -0.36900
O2249       O  0.57448434  0.74898542  0.53936323    -0.37800
O2250       O  0.54486356  0.74669466  0.56215911    -0.34000
O2251       O  0.57483691  0.86715234  0.56353402    -0.35400
O2252       O  0.56650855  0.85750557  0.59874945    -0.39700
C2253       C  0.67893439  0.79425496  0.67525666    -0.13400
C2254       C  0.69092315  0.80503668  0.69293430     0.17000
C2255       C  0.69012113  0.82909929  0.69445452     0.03300
C2256       C  0.67749182  0.84184215  0.67838698    -0.11900
C2257       C  0.66467415  0.83141532  0.66055942    -0.02900
C2258       C  0.66628882  0.80677595  0.65888326     0.02600
C2259       C  0.70664819  0.79107734  0.70757716     0.09400
N2260       N  0.70154682  0.84084595  0.71269374     0.65800
H2261       H  0.67696677  0.86031999  0.68046350     0.18700
N2262       N  0.65670779  0.79371508  0.64044193     0.76200
H2263       H  0.68040873  0.77577020  0.67340475     0.10200
C2264       C  0.69863043  0.77360290  0.72206341     0.03900
C2265       C  0.71421917  0.75939437  0.73383759    -0.04800
C2266       C  0.73832431  0.76085632  0.73039973    -0.23200
C2267       C  0.74602691  0.78029378  0.71728718     0.13100
C2268       C  0.73024532  0.79464430  0.70600841    -0.12400
N2269       N  0.67456854  0.77009155  0.72505464     0.64800
H2270       H  0.70682093  0.74711402  0.74545920     0.12700
N2271       N  0.76972473  0.78608139  0.71487493     0.61400
H2272       H  0.73662825  0.80849828  0.69536346     0.08800
O2273       O  0.66512713  0.79531588  0.62055727    -0.40000
O2274       O  0.64414465  0.77670910  0.64504730    -0.39200
O2275       O  0.71513863  0.85706940  0.70827233    -0.39200
O2276       O  0.69649373  0.83640570  0.73329036    -0.36900
O2277       O  0.77793467  0.80062277  0.72860850    -0.37800
O2278       O  0.77896277  0.78413783  0.69536171    -0.34000
O2279       O  0.66486802  0.75356078  0.71506703    -0.35400
O2280       O  0.66360569  0.78179496  0.73968862    -0.39700
C2281       C  0.42013746  0.93793876  0.67360418    -0.13400
C2282       C  0.41910761  0.92049268  0.69012038     0.17000
C2283       C  0.43465995  0.92075278  0.70855861     0.03300
C2284       C  0.45106550  0.93827418  0.71011471    -0.11900
C2285       C  0.45262629  0.95538771  0.69315055    -0.02900
C2286       C  0.43671269  0.95520855  0.67486794     0.02600
C2287       C  0.40396622  0.90061034  0.68567766     0.09400
N2288       N  0.43442705  0.90290891  0.72537759     0.65800
H2289       H  0.46322947  0.93792166  0.72413318     0.18700
N2290       N  0.43742968  0.97215434  0.65713899     0.76200
H2291       H  0.40856182  0.93761265  0.65908163     0.10200
C2292       C  0.37997822  0.90230079  0.68708704     0.03900
C2293       C  0.36631573  0.88475952  0.67794016    -0.04800
C2294       C  0.37604553  0.86689344  0.66454358    -0.23200
C2295       C  0.40026530  0.86306930  0.66759526     0.13100
C2296       C  0.41377157  0.88031450  0.67743127    -0.12400
N2297       N  0.36926596  0.92265418  0.69579128     0.64800
H2298       H  0.34802701  0.88711755  0.67842642     0.12700
N2299       N  0.41168630  0.84195702  0.66170021     0.61400
H2300       H  0.43225328  0.87818168  0.67785812     0.08800
O2301       O  0.44652750  0.96730917  0.63805389    -0.40000
O2302       O  0.42595953  0.99047980  0.65927297    -0.39200
O2303       O  0.44974736  0.88750990  0.72508284    -0.39200
O2304       O  0.42042439  0.90390107  0.74190034    -0.36900
O2305       O  0.40962059  0.82494884  0.67492926    -0.37800
O2306       O  0.42906024  0.84265276  0.64873705    -0.34000
O2307       O  0.36484567  0.93908719  0.68235989    -0.35400
O2308       O  0.36111549  0.92281701  0.71586332    -0.39700
C2309       C  0.39212673  0.80677931  0.60873328    -0.13400
C2310       C  0.40675659  0.82100279  0.59600689     0.17000
C2311       C  0.40647040  0.84467092  0.60030843     0.03300
C2312       C  0.39141924  0.85370949  0.61652751    -0.11900
C2313       C  0.37613079  0.84000459  0.62971261    -0.02900
C2314       C  0.37683654  0.81572289  0.62539264     0.02600
C2315       C  0.42139887  0.81152478  0.57725584     0.09400
N2316       N  0.42211002  0.85981454  0.58893840     0.65800
H2317       H  0.39237837  0.87203076  0.61947562     0.18700
N2318       N  0.36254787  0.79952810  0.63700318     0.76200
H2319       H  0.39211616  0.78848941  0.60524751     0.10200
C2320       C  0.43791058  0.79413468  0.58111279     0.03900
C2321       C  0.45257928  0.78725757  0.56313834    -0.04800
C2322       C  0.45155820  0.79802000  0.54156951    -0.23200
C2323       C  0.43419141  0.81453824  0.53738893     0.13100
C2324       C  0.41929439  0.82095259  0.55519418    -0.12400
N2325       N  0.44117410  0.78462866  0.60353437     0.64800
H2326       H  0.46598549  0.77476518  0.56658532     0.12700
N2327       N  0.43154835  0.82504271  0.51523172     0.61400
H2328       H  0.40612510  0.83374455  0.55190973     0.08800
O2329       O  0.37185874  0.78295461  0.64747098    -0.40000
O2330       O  0.34162078  0.79809318  0.63182520    -0.39200
O2331       O  0.41457684  0.87686377  0.57784281    -0.39200
O2332       O  0.44341516  0.85769251  0.59217989    -0.36900
O2333       O  0.43220045  0.81291828  0.49727084    -0.37800
O2334       O  0.42667263  0.84614521  0.51365434    -0.34000
O2335       O  0.44116199  0.76313221  0.60634391    -0.35400
O2336       O  0.44614336  0.79756642  0.62015879    -0.39700
C2337       C  0.30577972  0.92735500  0.57241016    -0.13400
C2338       C  0.32692073  0.91585747  0.57342678     0.17000
C2339       C  0.34355744  0.92014116  0.55639248     0.03300
C2340       C  0.33928328  0.93660934  0.53935655    -0.11900
C2341       C  0.31830344  0.94865036  0.53849318    -0.02900
C2342       C  0.30125373  0.94348072  0.55504410     0.02600
C2343       C  0.33243357  0.90118079  0.59351385     0.09400
N2344       N  0.36492019  0.90791302  0.55628881     0.65800
H2345       H  0.35248843  0.93991339  0.52667179     0.18700
N2346       N  0.27964598  0.95516414  0.55513340     0.76200
H2347       H  0.29294705  0.92422864  0.58551961     0.10200
C2348       C  0.34619748  0.90958564  0.61125819     0.03900
C2349       C  0.35393756  0.89479882  0.62853621    -0.04800
C2350       C  0.34795785  0.87114038  0.62939430    -0.23200
C2351       C  0.33403422  0.86297894  0.61083160     0.13100
C2352       C  0.32624809  0.87806550  0.59363555    -0.12400
N2353       N  0.35351801  0.93303112  0.61129390     0.64800
H2354       H  0.36626698  0.90215123  0.64000937     0.12700
N2355       N  0.32973067  0.83905860  0.60741532     0.61400
H2356       H  0.31632695  0.87131661  0.57947699     0.08800
O2357       O  0.27628799  0.97172884  0.56872321    -0.40000
O2358       O  0.26302351  0.94694632  0.54407048    -0.39200
O2359       O  0.36534441  0.88683389  0.55120877    -0.39200
O2360       O  0.38352613  0.91871827  0.55819619    -0.36900
O2361       O  0.31114272  0.83069817  0.61462181    -0.37800
O2362       O  0.34001500  0.82894379  0.59117967    -0.34000
O2363       O  0.33900470  0.94897787  0.61399153    -0.35400
O2364       O  0.37463392  0.93770706  0.61085148    -0.39700
C2365       C  0.30456361  0.82994075  0.67752767    -0.13400
C2366       C  0.31400478  0.81211944  0.69066258     0.17000
C2367       C  0.33793789  0.80937515  0.69065964     0.03300
C2368       C  0.35171066  0.82345872  0.67689663    -0.11900
C2369       C  0.34265948  0.84017667  0.66180065    -0.02900
C2370       C  0.31834940  0.84450799  0.66388641     0.02600
C2371       C  0.29885213  0.79611760  0.70388534     0.09400
N2372       N  0.34865547  0.79250754  0.70494015     0.65800
H2373       H  0.36987130  0.82060701  0.67750522     0.18700
N2374       N  0.30711441  0.86414611  0.65396735     0.76200
H2375       H  0.28619908  0.83286501  0.67818198     0.10200
C2376       C  0.28375537  0.80381957  0.72116776     0.03900
C2377       C  0.27023484  0.78802888  0.73346193    -0.04800
C2378       C  0.27168050  0.76392934  0.72960799    -0.23200
C2379       C  0.28647513  0.75661691  0.71126305     0.13100
C2380       C  0.29955222  0.77262842  0.69888859    -0.12400
N2381       N  0.28289713  0.82756486  0.72739095     0.64800
H2382       H  0.25946585  0.79504886  0.74686158     0.12700
N2383       N  0.28909095  0.73297288  0.70499483     0.61400
H2384       H  0.31061288  0.76650859  0.68518566     0.08800
O2385       O  0.31112099  0.88385775  0.66193084    -0.40000
O2386       O  0.28887294  0.86133057  0.64271265    -0.39200
O2387       O  0.35588838  0.77394940  0.69629282    -0.39200
O2388       O  0.35398824  0.79759345  0.72527072    -0.36900
O2389       O  0.27775751  0.72550424  0.68818256    -0.37800
O2390       O  0.30752345  0.72277985  0.71014533    -0.34000
O2391       O  0.26499858  0.83921274  0.72354734    -0.35400
O2392       O  0.29860195  0.83593591  0.73962358    -0.39700
C2393       C  0.42217985  0.77076645  0.42836013    -0.13400
C2394       C  0.42339378  0.78819420  0.41171111     0.17000
C2395       C  0.44320085  0.80196681  0.41059200     0.03300
C2396       C  0.46054357  0.79917988  0.42681387    -0.11900
C2397       C  0.45871589  0.78292842  0.44447093    -0.02900
C2398       C  0.43989226  0.76777892  0.44448524     0.02600
C2399       C  0.40295995  0.79433119  0.39781261     0.09400
N2400       N  0.44513463  0.82030502  0.39440603     0.65800
H2401       H  0.47503288  0.81077667  0.42630836     0.18700
N2402       N  0.43782752  0.75030411  0.46154390     0.76200
H2403       H  0.40708389  0.76002791  0.42934196     0.10200
C2404       C  0.40284805  0.79240538  0.37381168     0.03900
C2405       C  0.38659066  0.80476638  0.36101426    -0.04800
C2406       C  0.37161079  0.82094344  0.37150229    -0.23200
C2407       C  0.36882725  0.81878333  0.39600755     0.13100
C2408       C  0.38493791  0.80597904  0.40859980    -0.12400
N2409       N  0.42014611  0.77931160  0.36215778     0.64800
H2410       H  0.38793603  0.80401339  0.34251840     0.12700
N2411       N  0.35031164  0.82892836  0.40892484     0.61400
H2412       H  0.38412110  0.80628159  0.42718540     0.08800
O2413       O  0.44658185  0.73073264  0.45805578    -0.40000
O2414       O  0.42531088  0.75361688  0.47894159    -0.39200
O2415       O  0.43460375  0.83889676  0.39820531    -0.39200
O2416       O  0.46162492  0.82019943  0.38034298    -0.36900
O2417       O  0.35511043  0.84353818  0.42414215    -0.37800
O2418       O  0.33262227  0.81703694  0.41224795    -0.34000
O2419       O  0.42100690  0.75779304  0.36467781    -0.35400
O2420       O  0.43298753  0.78884440  0.34755644    -0.39700
C2421       C  0.42717107  0.92517524  0.33166636    -0.13400
C2422       C  0.42855672  0.90507706  0.31845835     0.17000
C2423       C  0.44552892  0.90342884  0.30120654     0.03300
C2424       C  0.46063541  0.92187955  0.29737202    -0.11900
C2425       C  0.45933040  0.94195087  0.31076677    -0.02900
C2426       C  0.44233988  0.94345200  0.32803595     0.02600
C2427       C  0.41260921  0.88588442  0.32391601     0.09400
N2428       N  0.44763716  0.88313468  0.28754446     0.65800
H2429       H  0.47370319  0.92034055  0.28419227     0.18700
N2430       N  0.43985311  0.96376539  0.34161599     0.76200
H2431       H  0.41425687  0.92661979  0.34502100     0.10200
C2432       C  0.41978048  0.86681475  0.33683011     0.03900
C2433       C  0.40351298  0.85125084  0.34542647    -0.04800
C2434       C  0.37951533  0.85397684  0.34161393    -0.23200
C2435       C  0.37296740  0.87243702  0.32667380     0.13100
C2436       C  0.38938632  0.88806505  0.31845523    -0.12400
N2437       N  0.44330540  0.86424401  0.34339881     0.64800
H2438       H  0.41015237  0.83885383  0.35735833     0.12700
N2439       N  0.34947983  0.87692842  0.32101111     0.61400
H2440       H  0.38375991  0.90264388  0.30831790     0.08800
O2441       O  0.44447386  0.96322085  0.36274495    -0.40000
O2442       O  0.43026076  0.98131291  0.33319718    -0.39200
O2443       O  0.43330976  0.87929031  0.27184048    -0.39200
O2444       O  0.46526759  0.87058286  0.28926957    -0.36900
O2445       O  0.34043380  0.89555371  0.32760788    -0.37800
O2446       O  0.34067544  0.86658278  0.30421093    -0.34000
O2447       O  0.45258444  0.87904944  0.35613440    -0.35400
O2448       O  0.45402023  0.84596360  0.33860823    -0.39700
C2449       C  0.35105581  0.89019042  0.39914197    -0.13400
C2450       C  0.32784883  0.89518661  0.39675755     0.17000
C2451       C  0.31517622  0.88337573  0.38009956     0.03300
C2452       C  0.32575043  0.86601891  0.36686035    -0.11900
C2453       C  0.34892727  0.85936850  0.37022681    -0.02900
C2454       C  0.36184271  0.87321478  0.38597593     0.02600
C2455       C  0.31844469  0.91455658  0.41047321     0.09400
N2456       N  0.29192898  0.88969636  0.37552976     0.65800
H2457       H  0.31577904  0.85867939  0.35317978     0.18700
N2458       N  0.38618485  0.87127475  0.38857546     0.76200
H2459       H  0.36121327  0.90004401  0.41116899     0.10200
C2460       C  0.30721214  0.91079015  0.43158077     0.03900
C2461       C  0.30314955  0.92929870  0.44657495    -0.04800
C2462       C  0.31097399  0.95145212  0.44122853    -0.23200
C2463       C  0.32135874  0.95534145  0.41968550     0.13100
C2464       C  0.32473600  0.93699034  0.40443731    -0.12400
N2465       N  0.30179193  0.88802419  0.43890675     0.64800
H2466       H  0.29539903  0.92602620  0.46317572     0.12700
N2467       N  0.32894133  0.97774590  0.41319994     0.61400
H2468       H  0.33361714  0.94001832  0.38835972     0.08800
O2469       O  0.39394642  0.86038843  0.40558125    -0.40000
O2470       O  0.39840437  0.88706479  0.38024529    -0.39200
O2471       O  0.28708016  0.90053359  0.35741994    -0.39200
O2472       O  0.27600629  0.88193819  0.38796380    -0.36900
O2473       O  0.34845787  0.98456650  0.41945815    -0.37800
O2474       O  0.31848324  0.98846071  0.39754980    -0.34000
O2475       O  0.31687931  0.87601305  0.44881837    -0.35400
O2476       O  0.28118698  0.88150798  0.43908546    -0.39700
C2477       C  0.30962118  0.80548335  0.32799167    -0.13400
C2478       C  0.31815465  0.79906730  0.30638158     0.17000
C2479       C  0.34058992  0.80639850  0.30071237     0.03300
C2480       C  0.35298641  0.82049424  0.31600918    -0.11900
C2481       C  0.34477105  0.82641362  0.33827919    -0.02900
C2482       C  0.32337048  0.81631919  0.34448030     0.02600
C2483       C  0.30364700  0.78424765  0.29065653     0.09400
N2484       N  0.35182724  0.79843543  0.28028741     0.65800
H2485       H  0.37003075  0.82548971  0.31070222     0.18700
N2486       N  0.31658288  0.81329838  0.36777715     0.76200
H2487       H  0.29253970  0.80037892  0.33310705     0.10200
C2488       C  0.28943173  0.76649497  0.29924178     0.03900
C2489       C  0.27458521  0.75463181  0.28449751    -0.04800
C2490       C  0.27538462  0.75703210  0.26030458    -0.23200
C2491       C  0.28952164  0.77518350  0.25180201     0.13100
C2492       C  0.30273093  0.78869287  0.26692091    -0.12400
N2493       N  0.29055737  0.75925131  0.32275953     0.64800
H2494       H  0.26295980  0.74290505  0.29264964     0.12700
N2495       N  0.29019396  0.78081300  0.22789623     0.61400
H2496       H  0.31244932  0.80283233  0.25984762     0.08800
O2497       O  0.32037683  0.79377843  0.37646602    -0.40000
O2498       O  0.29978325  0.82481404  0.37535735    -0.39200
O2499       O  0.36243647  0.81240900  0.26760355    -0.39200
O2500       O  0.35401153  0.77714113  0.27673889    -0.36900
O2501       O  0.30439444  0.77081645  0.21486884    -0.37800
O2502       O  0.28070143  0.79911598  0.22111216    -0.34000
O2503       O  0.27234853  0.75565736  0.33395951    -0.35400
O2504       O  0.30963244  0.75391099  0.33152765    -0.39700
C2505       C  0.68474730  0.86760581  0.40666748    -0.13400
C2506       C  0.68113958  0.89123076  0.40494316     0.17000
C2507       C  0.66799470  0.89986121  0.38681670     0.03300
C2508       C  0.65860691  0.88482950  0.37073347    -0.11900
C2509       C  0.66252491  0.86069550  0.37134351    -0.02900
C2510       C  0.67540181  0.85230132  0.39063686     0.02600
C2511       C  0.68872149  0.90653448  0.42364297     0.09400
N2512       N  0.66282886  0.92388532  0.38524400     0.65800
H2513       H  0.64693934  0.89270169  0.35887042     0.18700
N2514       N  0.67742859  0.82835347  0.39581888     0.76200
H2515       H  0.69405107  0.86083281  0.42127907     0.10200
C2516       C  0.67540639  0.90867289  0.44367471     0.03900
C2517       C  0.68109973  0.92510824  0.46012489    -0.04800
C2518       C  0.70018196  0.93948054  0.45716100    -0.23200
C2519       C  0.71431775  0.93642834  0.43765864     0.13100
C2520       C  0.70830464  0.92019008  0.42089627    -0.12400
N2521       N  0.65533766  0.89502997  0.44692244     0.64800
H2522       H  0.67011262  0.92707514  0.47504351     0.12700
N2523       N  0.73395563  0.95055343  0.43397632     0.61400
H2524       H  0.71863080  0.91857089  0.40548209     0.08800
O2525       O  0.66399131  0.82006418  0.41065202    -0.40000
O2526       O  0.69654450  0.81854959  0.39278992    -0.39200
O2527       O  0.66935281  0.93515491  0.36794430    -0.39200
O2528       O  0.64913557  0.93303723  0.39939792    -0.36900
O2529       O  0.75307964  0.94464428  0.44224251    -0.37800
O2530       O  0.73292639  0.96702730  0.41994047    -0.34000
O2531       O  0.65626600  0.87725974  0.45928265    -0.35400
O2532       O  0.63622301  0.90202806  0.43950939    -0.39700
C2533       C  0.61801887  0.79395618  0.38721103    -0.13400
C2534       C  0.60297788  0.80707317  0.40064297     0.17000
C2535       C  0.60360842  0.83102458  0.39911295     0.03300
C2536       C  0.61922432  0.84155266  0.38443470    -0.11900
C2537       C  0.63458357  0.82894711  0.37011080    -0.02900
C2538       C  0.63399540  0.80431243  0.37223656     0.02600
C2539       C  0.58757034  0.79604447  0.41755188     0.09400
N2540       N  0.58806532  0.84496944  0.41218139     0.65800
H2541       H  0.61877834  0.86014590  0.38360981     0.18700
N2542       N  0.64968823  0.78918189  0.36071425     0.76200
H2543       H  0.61786756  0.77541662  0.38895043     0.10200
C2544       C  0.56596942  0.78754352  0.41106983     0.03900
C2545       C  0.54994233  0.78149638  0.42800918    -0.04800
C2546       C  0.55526105  0.78380644  0.45135419    -0.23200
C2547       C  0.57745095  0.79069471  0.45782781     0.13100
C2548       C  0.59337323  0.79691954  0.44087552    -0.12400
N2549       N  0.55937695  0.78703137  0.38748043     0.64800
H2550       H  0.53271659  0.77679206  0.42294157     0.12700
N2551       N  0.58347362  0.79261632  0.48158782     0.61400
H2552       H  0.61002872  0.80335958  0.44590986     0.08800
O2553       O  0.64188693  0.77245396  0.34942673    -0.40000
O2554       O  0.67050871  0.78880549  0.36651621    -0.39200
O2555       O  0.59559200  0.85797900  0.42771894    -0.39200
O2556       O  0.56716702  0.84601772  0.40666516    -0.36900
O2557       O  0.57930607  0.77631948  0.49523952    -0.37800
O2558       O  0.59348118  0.81033253  0.48889438    -0.34000
O2559       O  0.55820532  0.76808608  0.37704654    -0.35400
O2560       O  0.55237478  0.80514214  0.37780794    -0.39700
C2561       C  0.62674337  0.89129577  0.31221002    -0.13400
C2562       C  0.60314616  0.88922146  0.31575981     0.17000
C2563       C  0.59475225  0.86919058  0.32602261     0.03300
C2564       C  0.61010288  0.85331883  0.33557889    -0.11900
C2565       C  0.63408389  0.85767356  0.33660388    -0.02900
C2566       C  0.64222860  0.87514170  0.32136762     0.02600
C2567       C  0.58777189  0.90895270  0.31088696     0.09400
N2568       N  0.57062650  0.86557085  0.32843047     0.65800
H2569       H  0.60267206  0.83820942  0.34330933     0.18700
N2570       N  0.66606919  0.87815647  0.31648501     0.76200
H2571       H  0.63323802  0.90601493  0.30289015     0.10200
C2572       C  0.58798444  0.92830959  0.32536471     0.03900
C2573       C  0.57226960  0.94619715  0.32189211    -0.04800
C2574       C  0.55619097  0.94532434  0.30400877    -0.23200
C2575       C  0.55673570  0.92639325  0.28879342     0.13100
C2576       C  0.57231842  0.90825824  0.29250420    -0.12400
N2577       N  0.60345108  0.92952469  0.34432624     0.64800
H2578       H  0.57226178  0.96060476  0.33367634     0.12700
N2579       N  0.54093322  0.92481754  0.27018285     0.61400
H2580       H  0.57215452  0.89346158  0.28122150     0.08800
O2581       O  0.67499826  0.89756849  0.31993947    -0.40000
O2582       O  0.67561144  0.86470791  0.30236465    -0.39200
O2583       O  0.56085787  0.85043406  0.31649792    -0.39200
O2584       O  0.55959788  0.87569016  0.34415702    -0.36900
O2585       O  0.54639617  0.93264017  0.25074114    -0.37800
O2586       O  0.52299846  0.91295823  0.27232141    -0.34000
O2587       O  0.61972775  0.94372292  0.34401856    -0.35400
O2588       O  0.59982764  0.91768412  0.36209633    -0.39700
C2589       C  0.70450510  0.81762281  0.32245488    -0.13400
C2590       C  0.69392687  0.80311690  0.30660410     0.17000
C2591       C  0.66984028  0.80230448  0.30617494     0.03300
C2592       C  0.65693544  0.81560914  0.32160706    -0.11900
C2593       C  0.66713651  0.83003055  0.33829315    -0.02900
C2594       C  0.69181723  0.83154809  0.33772800     0.02600
C2595       C  0.70830216  0.78808020  0.29142878     0.09400
N2596       N  0.65813921  0.78825043  0.28986435     0.65800
H2597       H  0.63841655  0.81440824  0.32072340     0.18700
N2598       N  0.70477765  0.84779611  0.35086306     0.76200
H2599       H  0.72306952  0.81852068  0.32264962     0.10200
C2600       C  0.72587124  0.79682373  0.27734033     0.03900
C2601       C  0.73961814  0.78174008  0.26425209    -0.04800
C2602       C  0.73549425  0.75770518  0.26323855    -0.23200
C2603       C  0.71889665  0.74919172  0.27931730     0.13100
C2604       C  0.70552065  0.76432051  0.29258701    -0.12400
N2605       N  0.72950738  0.82109249  0.27549192     0.64800
H2606       H  0.75325408  0.78948256  0.25444663     0.12700
N2607       N  0.71513894  0.72523814  0.28288489     0.61400
H2608       H  0.69299676  0.75727256  0.30440210     0.08800
O2609       O  0.70324346  0.86887765  0.34612014    -0.40000
O2610       O  0.72242074  0.84094968  0.36141813    -0.39200
O2611       O  0.64486454  0.77258454  0.29665600    -0.39200
O2612       O  0.65957739  0.79270596  0.26872231    -0.36900
O2613       O  0.69552053  0.71726864  0.27853173    -0.37800
O2614       O  0.72728288  0.71502109  0.29763146    -0.34000
O2615       O  0.74946267  0.82918254  0.27733532    -0.35400
O2616       O  0.71312167  0.83424152  0.27001618    -0.39700
C2617       C  0.38262014  0.18212906  0.40077612    -0.13400
C2618       C  0.40354618  0.18955285  0.39186043     0.17000
C2619       C  0.40641855  0.18997150  0.36792976     0.03300
C2620       C  0.39000327  0.17961606  0.35379275    -0.11900
C2621       C  0.37223164  0.16616919  0.36322115    -0.02900
C2622       C  0.36649977  0.17118713  0.38671456     0.02600
C2623       C  0.42330779  0.19201959  0.40764018     0.09400
N2624       N  0.42690399  0.19892838  0.35792311     0.65800
H2625       H  0.39334969  0.17915486  0.33566042     0.18700
N2626       N  0.34467976  0.16599546  0.39680198     0.76200
H2627       H  0.37938241  0.18336063  0.41905755     0.10200
C2628       C  0.42401741  0.20883469  0.42501520     0.03900
C2629       C  0.44171809  0.20833045  0.44136408    -0.04800
C2630       C  0.45851346  0.19086511  0.44103986    -0.23200
C2631       C  0.45762515  0.17403933  0.42358836     0.13100
C2632       C  0.44026082  0.17486403  0.40710211    -0.12400
N2633       N  0.40677799  0.22632792  0.42636239     0.64800
H2634       H  0.44202066  0.22133425  0.45466571     0.12700
N2635       N  0.47429395  0.15600093  0.42223084     0.61400
H2636       H  0.43954255  0.16146234  0.39420033     0.08800
O2637       O  0.32886346  0.18076714  0.39505972    -0.40000
O2638       O  0.34402205  0.15241356  0.41366965    -0.39200
O2639       O  0.44268148  0.18539376  0.35159090    -0.39200
O2640       O  0.42781420  0.21986303  0.35241337    -0.36900
O2641       O  0.49106862  0.15797576  0.40866674    -0.37800
O2642       O  0.46970735  0.13655925  0.43059704    -0.34000
O2643       O  0.39236989  0.22615137  0.44256348    -0.35400
O2644       O  0.40758572  0.24333921  0.41297516    -0.39700
C2645       C  0.34782173  0.10219240  0.39578453    -0.13400
C2646       C  0.32427593  0.09885894  0.39403805     0.17000
C2647       C  0.31210188  0.11012495  0.37652734     0.03300
C2648       C  0.32360599  0.12531069  0.36168388    -0.11900
C2649       C  0.34734410  0.13009157  0.36410216    -0.02900
C2650       C  0.35948269  0.11712996  0.38120324     0.02600
C2651       C  0.31360384  0.08288285  0.41070652     0.09400
N2652       N  0.28805984  0.10641746  0.37364730     0.65800
H2653       H  0.31372568  0.13263075  0.34786568     0.18700
N2654       N  0.38382712  0.11839939  0.38412562     0.76200
H2655       H  0.35744753  0.09291788  0.40875237     0.10200
C2656       C  0.30709003  0.06039269  0.40445331     0.03900
C2657       C  0.30221000  0.04418592  0.42167048    -0.04800
C2658       C  0.30455853  0.04986471  0.44493602    -0.23200
C2659       C  0.30969576  0.07262149  0.45108014     0.13100
C2660       C  0.31399015  0.08895178  0.43400983    -0.12400
N2661       N  0.30766965  0.05310431  0.38098690     0.64800
H2662       H  0.29861203  0.02659413  0.41687086     0.12700
N2663       N  0.31187609  0.07901188  0.47464226     0.61400
H2664       H  0.31910469  0.10612176  0.43898643     0.08800
O2665       O  0.39167583  0.13079725  0.39998732    -0.40000
O2666       O  0.39582479  0.10156976  0.37744518    -0.39200
O2667       O  0.27406477  0.11420369  0.38830316    -0.39200
O2668       O  0.28064656  0.09817037  0.35508430    -0.36900
O2669       O  0.33151149  0.08075164  0.48350616    -0.37800
O2670       O  0.29442936  0.08565551  0.48571509    -0.34000
O2671       O  0.32636216  0.05329460  0.36999456    -0.35400
O2672       O  0.29047328  0.04325644  0.37240754    -0.39700
C2673       C  0.43531567  0.07481824  0.29164893    -0.13400
C2674       C  0.42235799  0.07566940  0.31196651     0.17000
C2675       C  0.42511437  0.05823145  0.32848608     0.03300
C2676       C  0.44140192  0.04090035  0.32496665    -0.11900
C2677       C  0.45476492  0.04007992  0.30489708    -0.02900
C2678       C  0.45125999  0.05698162  0.28784041     0.02600
C2679       C  0.40760551  0.09580265  0.31708489     0.09400
N2680       N  0.41200242  0.05832235  0.34929936     0.65800
H2681       H  0.44368966  0.02799932  0.33818186     0.18700
N2682       N  0.46456239  0.05699377  0.26721347     0.76200
H2683       H  0.43338766  0.08829529  0.27896445     0.10200
C2684       C  0.41646944  0.11470329  0.32888756     0.03900
C2685       C  0.40166540  0.13142300  0.33791461    -0.04800
C2686       C  0.37749388  0.13042584  0.33501307    -0.23200
C2687       C  0.36896219  0.11135113  0.32192967     0.13100
C2688       C  0.38405987  0.09454574  0.31331610    -0.12400
N2689       N  0.44047840  0.11611108  0.33358732     0.64800
H2690       H  0.40967659  0.14361456  0.34907199     0.12700
N2691       N  0.34490355  0.10742496  0.31879361     0.61400
H2692       H  0.37717279  0.07973274  0.30447173     0.08800
O2693       O  0.48143160  0.07035377  0.26529714    -0.40000
O2694       O  0.45735703  0.04643128  0.24978312    -0.39200
O2695       O  0.39061081  0.05517518  0.34858694    -0.39200
O2696       O  0.42213400  0.05782904  0.36840114    -0.36900
O2697       O  0.33395362  0.11885008  0.30401904    -0.37800
O2698       O  0.33630966  0.08896284  0.32615227    -0.34000
O2699       O  0.45346901  0.12680537  0.31997698    -0.35400
O2700       O  0.44817021  0.10918671  0.35259659    -0.39700
C2701       C  0.33662274  0.17834894  0.29267051    -0.13400
C2702       C  0.31696465  0.18919864  0.30140897     0.17000
C2703       C  0.31187250  0.18650763  0.32485943     0.03300
C2704       C  0.32602895  0.17292046  0.33876891    -0.11900
C2705       C  0.34552291  0.16110595  0.33035162    -0.02900
C2706       C  0.35133509  0.16526702  0.30668779     0.02600
C2707       C  0.30165802  0.20286679  0.28589359     0.09400
N2708       N  0.29270455  0.19809044  0.33510271     0.65800
H2709       H  0.32135688  0.17139315  0.35651203     0.18700
N2710       N  0.37220014  0.15731116  0.29624184     0.76200
H2711       H  0.34089644  0.18029532  0.27467307     0.10200
C2712       C  0.31013595  0.22004071  0.27110361     0.03900
C2713       C  0.29495029  0.23267580  0.25723418    -0.04800
C2714       C  0.27082863  0.23001941  0.25865246    -0.23200
C2715       C  0.26288307  0.21075386  0.27175291     0.13100
C2716       C  0.27821833  0.19781394  0.28511992    -0.12400
N2717       N  0.33408247  0.22543306  0.27038557     0.64800
H2718       H  0.30256816  0.24476386  0.24555324     0.12700
N2719       N  0.23948102  0.20337668  0.27127957     0.61400
H2720       H  0.27162879  0.18359516  0.29512440     0.08800
O2721       O  0.37110270  0.14180951  0.28114763    -0.40000
O2722       O  0.38926225  0.17054371  0.29590371    -0.39200
O2723       O  0.27755175  0.18672400  0.34557116    -0.39200
O2724       O  0.29259970  0.21972383  0.33645988    -0.36900
O2725       O  0.22489725  0.21238788  0.28459014    -0.37800
O2726       O  0.23468598  0.18464194  0.26154337    -0.34000
O2727       O  0.34453268  0.22612808  0.25139941    -0.35400
O2728       O  0.34432152  0.23149235  0.28843403    -0.39700
C2729       C  0.42662004  0.07138763  0.69955084    -0.13400
C2730       C  0.43063804  0.08769108  0.68227359     0.17000
C2731       C  0.45210158  0.08785219  0.67092193     0.03300
C2732       C  0.46806383  0.07035974  0.67537038    -0.11900
C2733       C  0.46342192  0.05304331  0.69140998    -0.02900
C2734       C  0.44282671  0.05404052  0.70418414     0.02600
C2735       C  0.41098739  0.10088198  0.67273979     0.09400
N2736       N  0.45741076  0.10504492  0.65408026     0.65800
H2737       H  0.48410833  0.07003238  0.66591990     0.18700
N2738       N  0.43705219  0.03625615  0.72006811     0.76200
H2739       H  0.41008406  0.07095361  0.70808233     0.10200
C2740       C  0.40338805  0.09628027  0.65040257     0.03900
C2741       C  0.38661446  0.11022676  0.64076695    -0.04800
C2742       C  0.37508066  0.12805843  0.65265772    -0.23200
C2743       C  0.38307401  0.13254168  0.67554625     0.13100
C2744       C  0.40061615  0.11874514  0.68512749    -0.12400
N2745       N  0.41226257  0.07715697  0.63747240     0.64800
H2746       H  0.38165233  0.10620707  0.62315760     0.12700
N2747       N  0.37504763  0.15140412  0.68916967     0.61400
H2748       H  0.40681266  0.12258531  0.70226402     0.08800
O2749       O  0.43450750  0.04095467  0.74105815    -0.40000
O2750       O  0.43150570  0.01665492  0.71273946    -0.39200
O2751       O  0.45299817  0.12592861  0.65806515    -0.39200
O2752       O  0.46835338  0.09969000  0.63611366    -0.36900
O2753       O  0.36624197  0.14728573  0.70854016    -0.37800
O2754       O  0.38266835  0.17128051  0.68531929    -0.34000
O2755       O  0.41300021  0.05739153  0.64634699    -0.35400
O2756       O  0.41656993  0.07937345  0.61633027    -0.39700
C2757       C  0.39161074  0.15437775  0.58136277    -0.13400
C2758       C  0.40838113  0.16905135  0.58975807     0.17000
C2759       C  0.40718085  0.17620663  0.61257742     0.03300
C2760       C  0.38979946  0.16784314  0.62685919    -0.11900
C2761       C  0.37226577  0.15288017  0.61907541    -0.02900
C2762       C  0.37401851  0.14579004  0.59535147     0.02600
C2763       C  0.42817132  0.17451804  0.57479531     0.09400
N2764       N  0.42416028  0.19114304  0.62182861     0.65800
H2765       H  0.39025709  0.17294788  0.64459664     0.18700
N2766       N  0.36037325  0.12829836  0.58495181     0.76200
H2767       H  0.39297336  0.14836256  0.56378939     0.10200
C2768       C  0.44381313  0.15709674  0.56852465     0.03900
C2769       C  0.45993379  0.16111929  0.55121283    -0.04800
C2770       C  0.46120119  0.18253713  0.54012312    -0.23200
C2771       C  0.44620468  0.20036473  0.54726415     0.13100
C2772       C  0.42977465  0.19617685  0.56443252    -0.12400
N2773       N  0.44341055  0.13517954  0.57963331     0.64800
H2774       H  0.47161208  0.14733952  0.54651064     0.12700
N2775       N  0.44653460  0.22236558  0.53643183     0.61400
H2776       H  0.41761398  0.20957372  0.56900870     0.08800
O2777       O  0.36716827  0.10773857  0.58628514    -0.40000
O2778       O  0.34828281  0.13379282  0.56785847    -0.39200
O2779       O  0.42133637  0.21261746  0.62065008    -0.39200
O2780       O  0.44014655  0.18299383  0.63394891    -0.36900
O2781       O  0.43544465  0.22552978  0.51813312    -0.37800
O2782       O  0.45495402  0.23934017  0.54683984    -0.34000
O2783       O  0.43910389  0.11728483  0.56824134    -0.35400
O2784       O  0.44983289  0.13342286  0.60021620    -0.39700
C2785       C  0.33260598  0.06415977  0.57455645    -0.13400
C2786       C  0.31247737  0.07485675  0.58251684     0.17000
C2787       C  0.29179023  0.07074018  0.57074981     0.03300
C2788       C  0.29160601  0.05583217  0.55164722    -0.11900
C2789       C  0.31188507  0.04509361  0.54370559    -0.02900
C2790       C  0.33262320  0.04980344  0.55533542     0.02600
C2791       C  0.31466868  0.09160554  0.60182731     0.09400
N2792       N  0.27077139  0.08093472  0.57842232     0.65800
H2793       H  0.27547295  0.05254361  0.54310740     0.18700
N2794       N  0.35406217  0.04039135  0.54781007     0.76200
H2795       H  0.34875666  0.06738021  0.58307261     0.10200
C2796       C  0.32610091  0.08516694  0.62203142     0.03900
C2797       C  0.33702250  0.10186085  0.63533107    -0.04800
C2798       C  0.33783587  0.12519402  0.62838348    -0.23200
C2799       C  0.32090693  0.13193220  0.61196832     0.13100
C2800       C  0.31031512  0.11504319  0.59820082    -0.12400
N2801       N  0.32788296  0.06150192  0.62845051     0.64800
H2802       H  0.34584361  0.09602312  0.65055743     0.12700
N2803       N  0.31542559  0.15554372  0.60779261     0.61400
H2804       H  0.30019586  0.12035862  0.58355600     0.08800
O2805       O  0.36308941  0.02398487  0.55874953    -0.40000
O2806       O  0.36572119  0.05098261  0.53295079    -0.39200
O2807       O  0.25987492  0.09442905  0.56542016    -0.39200
O2808       O  0.26164319  0.07418439  0.59686954    -0.36900
O2809       O  0.31641207  0.16326738  0.58757675    -0.37800
O2810       O  0.30325123  0.16613447  0.62231619    -0.34000
O2811       O  0.34733703  0.05223641  0.63098359    -0.35400
O2812       O  0.31001949  0.05035753  0.63336631    -0.39700
C2813       C  0.32880724  0.19781205  0.66653621    -0.13400
C2814       C  0.31596843  0.18818725  0.68445648     0.17000
C2815       C  0.31627471  0.16404909  0.68677986     0.03300
C2816       C  0.32940866  0.15043387  0.67162784    -0.11900
C2817       C  0.34280585  0.15978804  0.65358484    -0.02900
C2818       C  0.34161600  0.18434357  0.65090893     0.02600
C2819       C  0.30147199  0.20378431  0.69939385     0.09400
N2820       N  0.30259070  0.15284635  0.70379363     0.65800
H2821       H  0.32924437  0.13199642  0.67412830     0.18700
N2822       N  0.35209016  0.19645457  0.63226561     0.76200
H2823       H  0.32839339  0.21628588  0.66419917     0.10200
C2824       C  0.30276855  0.20421349  0.72357592     0.03900
C2825       C  0.28778080  0.21860733  0.73624775    -0.04800
C2826       C  0.27118735  0.23334642  0.72592541    -0.23200
C2827       C  0.27161489  0.23402062  0.70119245     0.13100
C2828       C  0.28614501  0.21899994  0.68878493    -0.12400
N2829       N  0.31933248  0.19045103  0.73564992     0.64800
H2830       H  0.28872585  0.21773603  0.75474890     0.12700
N2831       N  0.25803431  0.24943027  0.68760713     0.61400
H2832       H  0.28552027  0.21936079  0.67020137     0.08800
O2833       O  0.34399219  0.19459434  0.61232412    -0.40000
O2834       O  0.36514162  0.21314294  0.63658419    -0.39200
O2835       O  0.28104138  0.15454447  0.70286432    -0.39200
O2836       O  0.31153349  0.13783120  0.71664453    -0.36900
O2837       O  0.26231261  0.27062464  0.68769885    -0.37800
O2838       O  0.24668949  0.24140792  0.67105138    -0.34000
O2839       O  0.33973771  0.18903767  0.72845109    -0.35400
O2840       O  0.31424676  0.18156419  0.75475026    -0.39700
C2841       C  0.72115323  0.06500438  0.42014237    -0.13400
C2842       C  0.69897183  0.06989043  0.41182343     0.17000
C2843       C  0.68016334  0.05853639  0.42204238     0.03300
C2844       C  0.68359357  0.04290472  0.43969064    -0.11900
C2845       C  0.70551260  0.03762555  0.44798971    -0.02900
C2846       C  0.72455564  0.04897544  0.43809273     0.02600
C2847       C  0.69499704  0.08568064  0.39193979     0.09400
N2848       N  0.65711269  0.06237215  0.41472886     0.65800
H2849       H  0.66853464  0.03469366  0.44683108     0.18700
N2850       N  0.74732198  0.04439398  0.44588139     0.76200
H2851       H  0.73587081  0.07329726  0.41242567     0.10200
C2852       C  0.70141478  0.10904595  0.39147001     0.03900
C2853       C  0.69135718  0.12389069  0.37502463    -0.04800
C2854       C  0.67363476  0.11623614  0.36036845    -0.23200
C2855       C  0.67316588  0.09177969  0.35680178     0.13100
C2856       C  0.68305128  0.07714066  0.37312255    -0.12400
N2857       N  0.71652614  0.11839013  0.40837371     0.64800
H2858       H  0.69528933  0.14195392  0.37585164     0.12700
N2859       N  0.66368561  0.08106250  0.33679031     0.61400
H2860       H  0.68094964  0.05873583  0.37136531     0.08800
O2861       O  0.75707662  0.05842773  0.45910394    -0.40000
O2862       O  0.75874998  0.02815196  0.43706966    -0.39200
O2863       O  0.64827058  0.04797367  0.40124043    -0.39200
O2864       O  0.64402222  0.07418206  0.42741733    -0.36900
O2865       O  0.67318431  0.08416560  0.31759104    -0.37800
O2866       O  0.65077157  0.06387287  0.33917288    -0.34000
O2867       O  0.73314040  0.13079028  0.40221684    -0.35400
O2868       O  0.71214660  0.11609523  0.42946890    -0.39700
C2869       C  0.62506872  0.16306826  0.40199084    -0.13400
C2870       C  0.60822395  0.17587745  0.39071297     0.17000
C2871       C  0.60900477  0.17730494  0.36665606     0.03300
C2872       C  0.62523041  0.16410277  0.35449870    -0.11900
C2873       C  0.64165861  0.14960366  0.36547120    -0.02900
C2874       C  0.64164666  0.15016435  0.39008961     0.02600
C2875       C  0.58866232  0.18486955  0.40465279     0.09400
N2876       N  0.59375444  0.19232746  0.35437816     0.65800
H2877       H  0.62519246  0.16526099  0.33594805     0.18700
N2878       N  0.65721780  0.13747786  0.40401913     0.76200
H2879       H  0.62465620  0.16202667  0.42056768     0.10200
C2880       C  0.56615316  0.17656757  0.40137454     0.03900
C2881       C  0.54944723  0.18040769  0.41826034    -0.04800
C2882       C  0.55453419  0.19248481  0.43837941    -0.23200
C2883       C  0.57625636  0.20265687  0.44073641     0.13100
C2884       C  0.59313086  0.19880048  0.42386734    -0.12400
N2885       N  0.56037756  0.16258278  0.38205510     0.64800
H2886       H  0.53270208  0.17273500  0.41625555     0.12700
N2887       N  0.58212604  0.21496985  0.46110638     0.61400
H2888       H  0.61028106  0.20534782  0.42657105     0.08800
O2889       O  0.65202275  0.11730356  0.40977999    -0.40000
O2890       O  0.67104408  0.14846100  0.41647326    -0.39200
O2891       O  0.58987341  0.21238740  0.36172375    -0.39200
O2892       O  0.58603791  0.18651950  0.33502199    -0.36900
O2893       O  0.58408384  0.20441909  0.47992339    -0.37800
O2894       O  0.58783210  0.23581295  0.45984014    -0.34000
O2895       O  0.56835078  0.14245873  0.38054423    -0.35400
O2896       O  0.54397653  0.16849738  0.36922212    -0.39700
C2897       C  0.60478006  0.09399434  0.33633696    -0.13400
C2898       C  0.60230004  0.09488994  0.31265843     0.17000
C2899       C  0.61684016  0.10950433  0.30001537     0.03300
C2900       C  0.63403247  0.12230901  0.31138408    -0.11900
C2901       C  0.63750816  0.12060938  0.33546099    -0.02900
C2902       C  0.62144666  0.10659742  0.34777285     0.02600
C2903       C  0.58390814  0.08023065  0.30263336     0.09400
N2904       N  0.61363949  0.11242676  0.27588218     0.65800
H2905       H  0.64397774  0.13404468  0.30113550     0.18700
N2906       N  0.62170118  0.10431432  0.37214959     0.76200
H2907       H  0.59351249  0.08307980  0.34634580     0.10200
C2908       C  0.58896410  0.06007993  0.28997422     0.03900
C2909       C  0.57193817  0.04318228  0.28696986    -0.04800
C2910       C  0.55016763  0.04570800  0.29713601    -0.23200
C2911       C  0.54472486  0.06653605  0.30828089     0.13100
C2912       C  0.56138045  0.08361980  0.31062517    -0.12400
N2913       N  0.61180203  0.05541779  0.28218782     0.64800
H2914       H  0.57638262  0.02721369  0.27844437     0.12700
N2915       N  0.52260184  0.07011758  0.31834967     0.61400
H2916       H  0.55720198  0.09892776  0.32041632     0.08800
O2917       O  0.60684289  0.11526303  0.38356795    -0.40000
O2918       O  0.62923590  0.08580047  0.38044717    -0.39200
O2919       O  0.59537923  0.12150722  0.26852582    -0.39200
O2920       O  0.63013908  0.10890913  0.26223816    -0.36900
O2921       O  0.51960321  0.06605922  0.33940792    -0.37800
O2922       O  0.50749539  0.08113575  0.30740358    -0.34000
O2923       O  0.62706052  0.04977725  0.29645672    -0.35400
O2924       O  0.61573204  0.05310619  0.26101079    -0.39700
C2925       C  0.73885693  0.19103042  0.28954641    -0.13400
C2926       C  0.71493214  0.19251243  0.28842687     0.17000
C2927       C  0.70501423  0.20908388  0.27402502     0.03300
C2928       C  0.71888612  0.22379630  0.26098723    -0.11900
C2929       C  0.74322720  0.22338564  0.26237243    -0.02900
C2930       C  0.75301456  0.20592679  0.27684174     0.02600
C2931       C  0.70043313  0.17770360  0.30345316     0.09400
N2932       N  0.68064174  0.21091662  0.27214307     0.65800
H2933       H  0.70998244  0.23525481  0.24949580     0.18700
N2934       N  0.77728555  0.20226606  0.27831820     0.76200
H2935       H  0.74669573  0.17820646  0.30054152     0.10200
C2936       C  0.69807819  0.15399611  0.29982883     0.03900
C2937       C  0.68461891  0.14073674  0.31487178    -0.04800
C2938       C  0.67236261  0.15041013  0.33357740    -0.23200
C2939       C  0.67671564  0.17442719  0.33798578     0.13100
C2940       C  0.68982895  0.18750732  0.32255635    -0.12400
N2941       N  0.70871697  0.14322042  0.28048070     0.64800
H2942       H  0.68321854  0.12271889  0.31129619     0.12700
N2943       N  0.67004010  0.18591941  0.35872394     0.61400
H2944       H  0.69264450  0.20555445  0.32614837     0.08800
O2945       O  0.78789540  0.20965580  0.29562842    -0.40000
O2946       O  0.78609323  0.18593367  0.26702307    -0.39200
O2947       O  0.66995301  0.22614499  0.28335258    -0.39200
O2948       O  0.67016570  0.19911413  0.25739147    -0.36900
O2949       O  0.68107155  0.18196063  0.37689546    -0.37800
O2950       O  0.65826552  0.20414855  0.35745896    -0.34000
O2951       O  0.72525927  0.12946687  0.28337771    -0.35400
O2952       O  0.69994225  0.14540696  0.26083138    -0.39700
C2953       C  0.69186516  0.08464263  0.55119018    -0.13400
C2954       C  0.69722385  0.08194940  0.57443662     0.17000
C2955       C  0.70998313  0.06257468  0.58157965     0.03300
C2956       C  0.71597528  0.04552669  0.56551089    -0.11900
C2957       C  0.70883783  0.04740910  0.54261948    -0.02900
C2958       C  0.69754925  0.06757206  0.53529778     0.02600
C2959       C  0.68691165  0.09822026  0.59103626     0.09400
N2960       N  0.71508931  0.05900215  0.60530649     0.65800
H2961       H  0.72430544  0.02990026  0.57133763     0.18700
N2962       N  0.69078815  0.07036199  0.51189052     0.76200
H2963       H  0.68225552  0.09960350  0.54556393     0.10200
C2964       C  0.69931273  0.11626422  0.60062172     0.03900
C2965       C  0.68816166  0.13230074  0.61476074    -0.04800
C2966       C  0.66472911  0.13021860  0.62144097    -0.23200
C2967       C  0.65206308  0.11323981  0.60889758     0.13100
C2968       C  0.66337962  0.09717781  0.59491587    -0.12400
N2969       N  0.72306751  0.11918249  0.59531308     0.64800
H2970       H  0.69819437  0.14705795  0.61926374     0.12700
N2971       N  0.62756072  0.11300555  0.60812418     0.61400
H2972       H  0.65341545  0.08429997  0.58598930     0.08800
O2973       O  0.70522034  0.07704851  0.49719254    -0.40000
O2974       O  0.66994922  0.06858059  0.50640412    -0.39200
O2975       O  0.69903846  0.05534162  0.61940160    -0.39200
O2976       O  0.73563598  0.05651137  0.61163151    -0.36900
O2977       O  0.61727089  0.12859484  0.59713760    -0.37800
O2978       O  0.61716886  0.09442060  0.61196755    -0.34000
O2979       O  0.72885734  0.13142254  0.57841792    -0.35400
O2980       O  0.73808117  0.11269341  0.60948749    -0.39700
C2981       C  0.63310785  0.09558209  0.68024847    -0.13400
C2982       C  0.60938749  0.09502913  0.67706374     0.17000
C2983       C  0.59924810  0.11187908  0.66333670     0.03300
C2984       C  0.61283424  0.12797140  0.65192013    -0.11900
C2985       C  0.63709328  0.12946014  0.65466057    -0.02900
C2986       C  0.64693130  0.11215845  0.66926278     0.02600
C2987       C  0.59558155  0.07482673  0.68433467     0.09400
N2988       N  0.57508344  0.11159588  0.65912452     0.65800
H2989       H  0.60371475  0.13700731  0.63881465     0.18700
N2990       N  0.67113346  0.10927570  0.67147848     0.76200
H2991       H  0.64121679  0.08210930  0.69023230     0.10200
C2992       C  0.59303604  0.05603663  0.66926786     0.03900
C2993       C  0.57562610  0.03997967  0.67313004    -0.04800
C2994       C  0.56060740  0.04189608  0.69193344    -0.23200
C2995       C  0.56400010  0.05997533  0.70777450     0.13100
C2996       C  0.58132966  0.07631133  0.70377766    -0.12400
N2997       N  0.60710010  0.05379380  0.64916133     0.64800
H2998       H  0.57358664  0.02604021  0.66098861     0.12700
N2999       N  0.54889092  0.06311281  0.72689284     0.61400
H3000       H  0.58276886  0.09096267  0.71514615     0.08800
O3001       O  0.68159920  0.09676061  0.65713406    -0.40000
O3002       O  0.68024579  0.11284350  0.69076052    -0.39200
O3003       O  0.56159649  0.12221373  0.67242777    -0.39200
O3004       O  0.56734564  0.10191668  0.64141194    -0.36900
O3005       O  0.55628863  0.06027641  0.74702258    -0.37800
O3006       O  0.52923168  0.07176259  0.72385720    -0.34000
O3007       O  0.62865091  0.05287347  0.65100915    -0.35400
O3008       O  0.59799465  0.04964688  0.62998970    -0.39700
C3009       C  0.63009899  0.18030568  0.58679123    -0.13400
C3010       C  0.60709843  0.18323741  0.59286384     0.17000
C3011       C  0.60111148  0.18192843  0.61611392     0.03300
C3012       C  0.61733451  0.17434117  0.63220974    -0.11900
C3013       C  0.63903599  0.16546568  0.62538435    -0.02900
C3014       C  0.64634181  0.17275618  0.60302790     0.02600
C3015       C  0.58938502  0.18507936  0.57468813     0.09400
N3016       N  0.57804160  0.18620964  0.62338191     0.65800
H3017       H  0.61097876  0.17221002  0.64937571     0.18700
N3018       N  0.67007921  0.17421401  0.59695150     0.76200
H3019       H  0.63537427  0.18354590  0.56924961     0.10200
C3020       C  0.58523996  0.20557175  0.56254491     0.03900
C3021       C  0.56900623  0.20596811  0.54473655    -0.04800
C3022       C  0.55681184  0.18605521  0.53861133    -0.23200
C3023       C  0.56118229  0.16551653  0.55088649     0.13100
C3024       C  0.57725630  0.16526468  0.56869433    -0.12400
N3025       N  0.59720985  0.22611823  0.56829176     0.64800
H3026       H  0.56598070  0.22193130  0.53564747     0.12700
N3027       N  0.54918122  0.14479175  0.54582241     0.61400
H3028       H  0.58035921  0.14937782  0.57788734     0.08800
O3029       O  0.67663066  0.16852400  0.57705710    -0.40000
O3030       O  0.68341240  0.18562716  0.60954696    -0.39200
O3031       O  0.56360607  0.17013509  0.62300416    -0.39200
O3032       O  0.57315491  0.20470620  0.63361873    -0.36900
O3033       O  0.55883603  0.12935671  0.53397807    -0.37800
O3034       O  0.53049920  0.14052645  0.55591173    -0.34000
O3035       O  0.61267404  0.23358372  0.55510907    -0.35400
O3036       O  0.59045564  0.23823638  0.58497212    -0.39700
C3037       C  0.67793892  0.19212285  0.68354878    -0.13400
C3038       C  0.70163081  0.18782130  0.68263656     0.17000
C3039       C  0.70891989  0.16788781  0.67088478     0.03300
C3040       C  0.69276859  0.15360149  0.66020404    -0.11900
C3041       C  0.66932813  0.15971627  0.65734713    -0.02900
C3042       C  0.66188201  0.17816196  0.67194821     0.02600
C3043       C  0.71793745  0.20241647  0.69651517     0.09400
N3044       N  0.73280236  0.16208848  0.66890031     0.65800
H3045       H  0.69931044  0.13735646  0.65434729     0.18700
N3046       N  0.63832452  0.18129654  0.67806306     0.76200
H3047       H  0.67163945  0.20578352  0.69455595     0.10200
C3048       C  0.71716926  0.22663720  0.69619423     0.03900
C3049       C  0.73159503  0.23943469  0.71070939    -0.04800
C3050       C  0.74726767  0.22912398  0.72627379    -0.23200
C3051       C  0.74988186  0.20459499  0.72412780     0.13100
C3052       C  0.73430641  0.19190899  0.71072238    -0.12400
N3053       N  0.70178148  0.23863771  0.68123147     0.64800
H3054       H  0.72996408  0.25787139  0.71023130     0.12700
N3055       N  0.76870780  0.19186984  0.73373241     0.61400
H3056       H  0.73551489  0.17335143  0.71102837     0.08800
O3057       O  0.62986273  0.20131613  0.67846292    -0.40000
O3058       O  0.62805703  0.16544054  0.68863282    -0.39200
O3059       O  0.73949413  0.14169764  0.67224104    -0.39200
O3060       O  0.74684290  0.17673243  0.66138397    -0.36900
O3061       O  0.78889059  0.19588786  0.72706105    -0.37800
O3062       O  0.76481549  0.17311880  0.74388449    -0.34000
O3063       O  0.68785743  0.25326610  0.68927179    -0.35400
O3064       O  0.70311257  0.23575667  0.65980599    -0.39700
C3065       C  0.39180941  0.68676248  0.88366812    -0.13400
C3066       C  0.41484153  0.68051585  0.88067190     0.17000
C3067       C  0.42086935  0.66773293  0.86119435     0.03300
C3068       C  0.40371417  0.65731941  0.84821480    -0.11900
C3069       C  0.38024982  0.65824274  0.85493724    -0.02900
C3070       C  0.37454351  0.67700860  0.86985158     0.02600
C3071       C  0.43148158  0.68325396  0.89972129     0.09400
N3072       N  0.44444837  0.66427746  0.85511760     0.65800
H3073       H  0.40936882  0.64759714  0.83343867     0.18700
N3074       N  0.35215415  0.68720501  0.87062858     0.76200
H3075       H  0.38711879  0.69856788  0.89728575     0.10200
C3076       C  0.43706697  0.70469910  0.90933117     0.03900
C3077       C  0.45167590  0.70568630  0.92849618    -0.04800
C3078       C  0.46101814  0.68553615  0.93822586    -0.23200
C3079       C  0.45498055  0.66408138  0.92861327     0.13100
C3080       C  0.44052633  0.66321533  0.90958804    -0.12400
N3081       N  0.42877604  0.72555680  0.89929026     0.64800
H3082       H  0.45616739  0.72233797  0.93540937     0.12700
N3083       N  0.46280492  0.64286831  0.93827268     0.61400
H3084       H  0.43583331  0.64657601  0.90279277     0.08800
O3085       O  0.34344767  0.69221853  0.88985841    -0.40000
O3086       O  0.34559803  0.69851868  0.85337096    -0.39200
O3087       O  0.45265500  0.64421521  0.85370705    -0.39200
O3088       O  0.45657923  0.68121106  0.84930646    -0.36900
O3089       O  0.45276687  0.63467223  0.95562986    -0.37800
O3090       O  0.47738943  0.63079938  0.92761137    -0.34000
O3091       O  0.41775921  0.73988221  0.91134223    -0.35400
O3092       O  0.43428645  0.73064952  0.87896616    -0.39700
C3093       C  0.40715551  0.59083744  0.83187058    -0.13400
C3094       C  0.40491382  0.58706917  0.80849166     0.17000
C3095       C  0.38804882  0.59955173  0.79640085     0.03300
C3096       C  0.37416230  0.61593906  0.80802850    -0.11900
C3097       C  0.37700328  0.62079451  0.83177437    -0.02900
C3098       C  0.39352670  0.60669897  0.84359159     0.02600
C3099       C  0.42037872  0.56924750  0.79830072     0.09400
N3100       N  0.38421831  0.59522249  0.77257729     0.65800
H3101       H  0.36067731  0.62405520  0.79828997     0.18700
N3102       N  0.39703536  0.60780672  0.86779098     0.76200
H3103       H  0.41974037  0.58097959  0.84146330     0.10200
C3104       C  0.44044751  0.57526284  0.78610212     0.03900
C3105       C  0.45822514  0.55898544  0.78307057    -0.04800
C3106       C  0.45652708  0.53683800  0.79252214    -0.23200
C3107       C  0.43586127  0.53043498  0.80332787     0.13100
C3108       C  0.41807594  0.54653018  0.80608055    -0.12400
N3109       N  0.44392535  0.59836149  0.77864821     0.64800
H3110       H  0.47397508  0.56414786  0.77466185     0.12700
N3111       N  0.43289883  0.50767945  0.81201914     0.61400
H3112       H  0.40287588  0.54165989  0.81563476     0.08800
O3113       O  0.41576153  0.61583444  0.87494261    -0.40000
O3114       O  0.38706973  0.59305361  0.88006871    -0.39200
O3115       O  0.37687375  0.57589487  0.76621044    -0.39200
O3116       O  0.38541636  0.61146763  0.75829269    -0.36900
O3117       O  0.43317788  0.50413583  0.83337194    -0.37800
O3118       O  0.42710123  0.49173356  0.79860003    -0.34000
O3119       O  0.45408625  0.61236668  0.79159239    -0.35400
O3120       O  0.44033055  0.60362902  0.75796901    -0.39700
C3121       C  0.33870953  0.60923577  0.90123880    -0.13400
C3122       C  0.32636091  0.59143688  0.89112732     0.17000
C3123       C  0.32457089  0.59066771  0.86720737     0.03300
C3124       C  0.33585671  0.60706194  0.85382707    -0.11900
C3125       C  0.34948245  0.62486670  0.86341214    -0.02900
C3126       C  0.35039426  0.62578635  0.88806341     0.02600
C3127       C  0.31816784  0.57223434  0.90571882     0.09400
N3128       N  0.31121273  0.57333860  0.85620832     0.65800
H3129       H  0.33395341  0.60586618  0.83537699     0.18700
N3130       N  0.36363390  0.64203109  0.90067551     0.76200
H3131       H  0.34035104  0.60958035  0.91976216     0.10200
C3132       C  0.33096207  0.55170731  0.90711136     0.03900
C3133       C  0.32465794  0.53473497  0.92280514    -0.04800
C3134       C  0.30563847  0.53760755  0.93742043    -0.23200
C3135       C  0.29201700  0.55762274  0.93518852     0.13100
C3136       C  0.29858505  0.57492006  0.91960579    -0.12400
N3137       N  0.35148784  0.54857221  0.89398311     0.64800
H3138       H  0.33532152  0.51947412  0.92414936     0.12700
N3139       N  0.27224790  0.56115064  0.94933456     0.61400
H3140       H  0.28860680  0.59064638  0.91859615     0.08800
O3141       O  0.38482759  0.63842457  0.90314076    -0.40000
O3142       O  0.35350778  0.65422867  0.91552035    -0.39200
O3143       O  0.28964204  0.57377312  0.85809407    -0.39200
O3144       O  0.32051655  0.55990404  0.84190833    -0.36900
O3145       O  0.27211652  0.57704697  0.96405455    -0.37800
O3146       O  0.25376609  0.55108078  0.94450112    -0.34000
O3147       O  0.37049073  0.55375174  0.90283881    -0.35400
O3148       O  0.35119553  0.53568758  0.87657880    -0.39700
C3149       C  0.31091246  0.71922697  0.77758998    -0.13400
C3150       C  0.30077642  0.70059557  0.78901420     0.17000
C3151       C  0.27636789  0.69971214  0.78871772     0.03300
C3152       C  0.26361416  0.71615695  0.77617784    -0.11900
C3153       C  0.27396256  0.73226925  0.76122044    -0.02900
C3154       C  0.29843795  0.73467137  0.76369359     0.02600
C3155       C  0.31598921  0.68381949  0.80235473     0.09400
N3156       N  0.26392317  0.68163358  0.79981228     0.65800
H3157       H  0.24507336  0.71483021  0.77632098     0.18700
N3158       N  0.31135879  0.75323679  0.75399647     0.76200
H3159       H  0.32905550  0.72233318  0.77980009     0.10200
C3160       C  0.33873806  0.67797869  0.79544762     0.03900
C3161       C  0.35317822  0.66514072  0.81017867    -0.04800
C3162       C  0.34499055  0.65400638  0.83014348    -0.23200
C3163       C  0.32145463  0.65889983  0.83617953     0.13100
C3164       C  0.30839494  0.67461821  0.82326486    -0.12400
N3165       N  0.34732555  0.68404860  0.77316284     0.64800
H3166       H  0.37096002  0.66278063  0.80524070     0.12700
N3167       N  0.31022392  0.64957744  0.85595757     0.61400
H3168       H  0.29203389  0.67988468  0.83031394     0.08800
O3169       O  0.32961127  0.74875656  0.74312184    -0.40000
O3170       O  0.30882580  0.77319111  0.76203936    -0.39200
O3171       O  0.24638414  0.68632974  0.81172453    -0.39200
O3172       O  0.26882424  0.66088479  0.79568077    -0.36900
O3173       O  0.29344693  0.63628270  0.85300465    -0.37800
O3174       O  0.31214937  0.65957981  0.87503646    -0.34000
O3175       O  0.36765661  0.69106596  0.77082880    -0.35400
O3176       O  0.33554887  0.67987790  0.75551492    -0.39700
C3177       C  0.68810673  0.59359305  0.87987276    -0.13400
C3178       C  0.68399576  0.59671741  0.90326556     0.17000
C3179       C  0.67197134  0.61636802  0.91046510     0.03300
C3180       C  0.66338100  0.63204025  0.89428253    -0.11900
C3181       C  0.66647955  0.62896538  0.87024162    -0.02900
C3182       C  0.67958072  0.60909296  0.86340403     0.02600
C3183       C  0.68972583  0.57795402  0.91968111     0.09400
N3184       N  0.66672805  0.61973432  0.93421088     0.65800
H3185       H  0.65236077  0.64515516  0.90120309     0.18700
N3186       N  0.68253282  0.60288596  0.83976404     0.76200
H3187       H  0.69708782  0.57824848  0.87419562     0.10200
C3188       C  0.67337722  0.56107316  0.92511235     0.03900
C3189       C  0.67838281  0.54430898  0.94159883    -0.04800
C3190       C  0.69983205  0.54327824  0.95256429    -0.23200
C3191       C  0.71660344  0.55982822  0.94653648     0.13100
C3192       C  0.71121039  0.57719173  0.93048208    -0.12400
N3193       N  0.65156332  0.56066192  0.91392208     0.64800
H3194       H  0.66534187  0.53171668  0.94559984     0.12700
N3195       N  0.73891606  0.55964573  0.95674507     0.61400
H3196       H  0.72390506  0.59007523  0.92630198     0.08800
O3197       O  0.69777182  0.61256136  0.82785513    -0.40000
O3198       O  0.67438866  0.58409473  0.83278708    -0.39200
O3199       O  0.67837934  0.63367725  0.94588588    -0.39200
O3200       O  0.64851183  0.61153487  0.94252276    -0.36900
O3201       O  0.75274559  0.54354132  0.95207468    -0.37800
O3202       O  0.74640676  0.57762835  0.96615274    -0.34000
O3203       O  0.65054787  0.55655120  0.89268812    -0.35400
O3204       O  0.63336783  0.56065177  0.92571772    -0.39700
C3205       C  0.59994209  0.68058930  0.87108493    -0.13400
C3206       C  0.60875837  0.69090746  0.89077586     0.17000
C3207       C  0.63274443  0.69180932  0.89330851     0.03300
C3208       C  0.64696564  0.67922553  0.87830765    -0.11900
C3209       C  0.63773440  0.66384752  0.86206871    -0.02900
C3210       C  0.61409028  0.66792882  0.85615695     0.02600
C3211       C  0.59281004  0.69598562  0.91021293     0.09400
N3212       N  0.64276804  0.70431730  0.91184319     0.65800
H3213       H  0.66515792  0.67946185  0.88130999     0.18700
N3214       N  0.60375178  0.65983439  0.83539639     0.76200
H3215       H  0.58163103  0.68103035  0.86795349     0.10200
C3216       C  0.57272295  0.70947343  0.90754717     0.03900
C3217       C  0.55583526  0.70959279  0.92488726    -0.04800
C3218       C  0.55844249  0.69621792  0.94476331    -0.23200
C3219       C  0.57879726  0.68333069  0.94766211     0.13100
C3220       C  0.59569150  0.68337193  0.93054484    -0.12400
N3221       N  0.56899169  0.72260414  0.88711335     0.64800
H3222       H  0.54024147  0.71950141  0.92243013     0.12700
N3223       N  0.58235632  0.66969913  0.96775966     0.61400
H3224       H  0.61068285  0.67248254  0.93267115     0.08800
O3225       O  0.60486994  0.67244986  0.81783795    -0.40000
O3226       O  0.58721195  0.64599470  0.83684670    -0.39200
O3227       O  0.65616916  0.69434682  0.92564481    -0.39200
O3228       O  0.63945659  0.72569719  0.91352164    -0.36900
O3229       O  0.58141488  0.64808096  0.96649756    -0.37800
O3230       O  0.58924728  0.67904684  0.98599507    -0.34000
O3231       O  0.55041215  0.72071483  0.87622044    -0.35400
O3232       O  0.58360413  0.73722356  0.88076134    -0.39700
C3233       C  0.60766567  0.59634533  0.84305070    -0.13400
C3234       C  0.60947738  0.59096521  0.81979708     0.17000
C3235       C  0.62524970  0.60325619  0.80626330     0.03300
C3236       C  0.63918944  0.62025716  0.81630540    -0.11900
C3237       C  0.63757624  0.62592870  0.83995727    -0.02900
C3238       C  0.62132242  0.61305569  0.85329358     0.02600
C3239       C  0.59440586  0.57236953  0.81069202     0.09400
N3240       N  0.62811503  0.59792929  0.78249729     0.65800
H3241       H  0.65203860  0.62795020  0.80546515     0.18700
N3242       N  0.61849119  0.61606457  0.87754830     0.76200
H3243       H  0.59534004  0.58730744  0.85364944     0.10200
C3244       C  0.59331643  0.55097605  0.82212929     0.03900
C3245       C  0.57528064  0.53587144  0.81756061    -0.04800
C3246       C  0.55854215  0.54103546  0.80109399    -0.23200
C3247       C  0.56033969  0.56170536  0.78853238     0.13100
C3248       C  0.57821012  0.57720764  0.79345836    -0.12400
N3249       N  0.61029603  0.54454600  0.83873166     0.64800
H3250       H  0.57446827  0.51975020  0.82683807     0.12700
N3251       N  0.54315044  0.56807556  0.77221546     0.61400
H3252       H  0.57850506  0.59372521  0.78489735     0.08800
O3253       O  0.62453062  0.59983104  0.89056907    -0.40000
O3254       O  0.60346757  0.62995197  0.88482377    -0.39200
O3255       O  0.62326046  0.61277689  0.76747882    -0.39200
O3256       O  0.63773503  0.57936053  0.77661359    -0.36900
O3257       O  0.52262947  0.57085703  0.77866401    -0.37800
O3258       O  0.54889349  0.57372860  0.75211017    -0.34000
O3259       O  0.60429784  0.53635286  0.85787100    -0.35400
O3260       O  0.63135226  0.54582818  0.83379624    -0.39700
C3261       C  0.70899350  0.67240199  0.82420914    -0.13400
C3262       C  0.69987466  0.68373665  0.80496869     0.17000
C3263       C  0.67602453  0.68177832  0.80121770     0.03300
C3264       C  0.66238675  0.66861577  0.81615405    -0.11900
C3265       C  0.67108644  0.65710649  0.83564346    -0.02900
C3266       C  0.69510784  0.66052096  0.84011239     0.02600
C3267       C  0.71532418  0.69731617  0.78901953     0.09400
N3268       N  0.66501786  0.69359946  0.78266978     0.65800
H3269       H  0.64444901  0.66755530  0.81238387     0.18700
N3270       N  0.70603748  0.65332405  0.86093876     0.76200
H3271       H  0.72723573  0.67327794  0.82747768     0.10200
C3272       C  0.73303392  0.71169001  0.79709486     0.03900
C3273       C  0.74705471  0.72367381  0.78148772    -0.04800
C3274       C  0.74237487  0.72483013  0.75757460    -0.23200
C3275       C  0.72588474  0.70849063  0.74956323     0.13100
C3276       C  0.71303358  0.69513080  0.76514082    -0.12400
N3277       N  0.73646875  0.71538939  0.82116433     0.64800
H3278       H  0.76136517  0.73258493  0.78888788     0.12700
N3279       N  0.72152369  0.70501734  0.72569227     0.61400
H3280       H  0.70091399  0.68289016  0.75829650     0.08800
O3281       O  0.70380379  0.66556939  0.87866688    -0.40000
O3282       O  0.72288426  0.63964461  0.85983120    -0.39200
O3283       O  0.65201889  0.68279230  0.76921122    -0.39200
O3284       O  0.66647907  0.71516701  0.78103682    -0.36900
O3285       O  0.73404651  0.69098862  0.71480697    -0.37800
O3286       O  0.70159065  0.70903037  0.71822627    -0.34000
O3287       O  0.75639429  0.71419781  0.82952595    -0.35400
O3288       O  0.72013683  0.72269583  0.83347949    -0.39700
C3289       C  0.70030009  0.38158104  0.88974265    -0.13400
C3290       C  0.68476897  0.39604192  0.90129140     0.17000
C3291       C  0.66149353  0.39543034  0.89512394     0.03300
C3292       C  0.65413697  0.37966705  0.87870461    -0.11900
C3293       C  0.66929218  0.36475971  0.86653184    -0.02900
C3294       C  0.69309028  0.36601067  0.87258367     0.02600
C3295       C  0.69252836  0.41121984  0.92039231     0.09400
N3296       N  0.64522177  0.41162465  0.90440593     0.65800
H3297       H  0.63610052  0.38002370  0.87433428     0.18700
N3298       N  0.71043640  0.35196220  0.86218730     0.76200
H3299       H  0.71825856  0.38202833  0.89446744     0.10200
C3300       C  0.68255943  0.40943976  0.94247980     0.03900
C3301       C  0.68623838  0.42679016  0.95876277    -0.04800
C3302       C  0.70043460  0.44555882  0.95393072    -0.23200
C3303       C  0.71140886  0.44673397  0.93231066     0.13100
C3304       C  0.70741452  0.42957083  0.91577681    -0.12400
N3305       N  0.66858043  0.39013159  0.94852612     0.64800
H3306       H  0.67819323  0.42544232  0.97549681     0.12700
N3307       N  0.72506212  0.46617003  0.92622253     0.61400
H3308       H  0.71485277  0.43132136  0.89880808     0.08800
O3309       O  0.71214702  0.33108329  0.86771352    -0.40000
O3310       O  0.72733221  0.36151975  0.85260915    -0.39200
O3311       O  0.65002663  0.43274313  0.90503873    -0.39200
O3312       O  0.62498442  0.40539742  0.90889819    -0.36900
O3313       O  0.74576005  0.46338445  0.92040550    -0.37800
O3314       O  0.71570697  0.48562946  0.92381435    -0.34000
O3315       O  0.67546552  0.36997338  0.94426098    -0.35400
O3316       O  0.65040346  0.39303158  0.96002220    -0.39700
C3317       C  0.63294954  0.40337690  0.81649330    -0.13400
C3318       C  0.61381557  0.39374438  0.80602582     0.17000
C3319       C  0.61303430  0.36974602  0.80336714     0.03300
C3320       C  0.62976588  0.35584108  0.81395160    -0.11900
C3321       C  0.64585334  0.36526443  0.82943208    -0.02900
C3322       C  0.64947235  0.38963102  0.82736989     0.02600
C3323       C  0.59398609  0.40907492  0.80090286     0.09400
N3324       N  0.59454440  0.35921172  0.79134061     0.65800
H3325       H  0.62806206  0.33747229  0.81254830     0.18700
N3326       N  0.66982800  0.40097394  0.83514807     0.76200
H3327       H  0.63467843  0.42190903  0.81693255     0.10200
C3328       C  0.57478070  0.40971844  0.81573609     0.03900
C3329       C  0.55814211  0.42701741  0.81315495    -0.04800
C3330       C  0.56007884  0.44390444  0.79606191    -0.23200
C3331       C  0.57884771  0.44275405  0.78070038     0.13100
C3332       C  0.59564459  0.42548267  0.78330437    -0.12400
N3333       N  0.57258346  0.39380778  0.83438116     0.64800
H3334       H  0.54389942  0.42766110  0.82512431     0.12700
N3335       N  0.58202550  0.45996262  0.76351969     0.61400
H3336       H  0.61054581  0.42544255  0.77213996     0.08800
O3337       O  0.66780818  0.41822737  0.84814218    -0.40000
O3338       O  0.68792180  0.39907037  0.82337422    -0.39200
O3339       O  0.59468600  0.35884865  0.76969838    -0.39200
O3340       O  0.57995759  0.34747606  0.80219090    -0.36900
O3341       O  0.58991830  0.47933148  0.76904476    -0.37800
O3342       O  0.58006454  0.45479381  0.74259650    -0.34000
O3343       O  0.58794132  0.39273929  0.84956479    -0.35400
O3344       O  0.55381364  0.38357946  0.83764580    -0.39700
C3345       C  0.62926342  0.31256916  0.89727600    -0.13400
C3346       C  0.60595082  0.31725066  0.89452901     0.17000
C3347       C  0.59883640  0.33085984  0.87607011     0.03300
C3348       C  0.61505118  0.34019199  0.86106980    -0.11900
C3349       C  0.63899724  0.33594631  0.86328261    -0.02900
C3350       C  0.64574487  0.32181539  0.88231676     0.02600
C3351       C  0.58985258  0.31206284  0.91345098     0.09400
N3352       N  0.57516040  0.33683425  0.87332069     0.65800
H3353       H  0.60824404  0.35232974  0.84904419     0.18700
N3354       N  0.66928059  0.31832782  0.88826812     0.76200
H3355       H  0.63489402  0.30278502  0.91207023     0.10200
C3356       C  0.57749361  0.29139086  0.91480015     0.03900
C3357       C  0.56148946  0.28817753  0.93262649    -0.04800
C3358       C  0.55747738  0.30551603  0.94903119    -0.23200
C3359       C  0.57073527  0.32583016  0.94795603     0.13100
C3360       C  0.58660537  0.32887059  0.93026785    -0.12400
N3361       N  0.58058612  0.27387249  0.89788741     0.64800
H3362       H  0.55157660  0.27249171  0.93309537     0.12700
N3363       N  0.56843468  0.34359822  0.96476090     0.61400
H3364       H  0.59635746  0.34466996  0.92948812     0.08800
O3365       O  0.67708289  0.32897653  0.90539792    -0.40000
O3366       O  0.67910612  0.29993720  0.88219921    -0.39200
O3367       O  0.56635152  0.35247361  0.88554700    -0.39200
O3368       O  0.56401295  0.32879663  0.85665367    -0.36900
O3369       O  0.57801137  0.34136656  0.98402553    -0.37800
O3370       O  0.55971878  0.36270222  0.95924602    -0.34000
O3371       O  0.59098893  0.25552012  0.90300838    -0.35400
O3372       O  0.57064837  0.27557342  0.87875621    -0.39700
C3373       C  0.68456169  0.29398512  0.81832827    -0.13400
C3374       C  0.70214283  0.30372619  0.80516381     0.17000
C3375       C  0.70439362  0.32785289  0.80553672     0.03300
C3376       C  0.69018308  0.34114927  0.81993208    -0.11900
C3377       C  0.67281184  0.33175625  0.83397360    -0.02900
C3378       C  0.66918912  0.30740419  0.83144931     0.02600
C3379       C  0.71697527  0.28834942  0.79043392     0.09400
N3380       N  0.72006618  0.33937779  0.79048089     0.65800
H3381       H  0.69250977  0.35938410  0.81970783     0.18700
N3382       N  0.64910929  0.29581210  0.83968314     0.76200
H3383       H  0.68191149  0.27558989  0.81748143     0.10200
C3384       C  0.74115865  0.28913827  0.79067992     0.03900
C3385       C  0.75387004  0.27493682  0.77571697    -0.04800
C3386       C  0.74370153  0.25932066  0.76010074    -0.23200
C3387       C  0.71924694  0.25684032  0.76217819     0.13100
C3388       C  0.70653024  0.27196777  0.77629517    -0.12400
N3389       N  0.75324642  0.30390166  0.80622118     0.64800
H3390       H  0.77221034  0.27639488  0.77617772     0.12700
N3391       N  0.70667128  0.23845053  0.75187304     0.61400
H3392       H  0.68801909  0.27038484  0.77670134     0.08800
O3393       O  0.65141891  0.27742982  0.85096691    -0.40000
O3394       O  0.63012347  0.29963041  0.83004601    -0.39200
O3395       O  0.71988930  0.33495331  0.76929631    -0.39200
O3396       O  0.73133816  0.35640965  0.79758391    -0.36900
O3397       O  0.70988899  0.21815854  0.75878698    -0.37800
O3398       O  0.68844849  0.24298385  0.74108119    -0.34000
O3399       O  0.74718309  0.30528035  0.82698917    -0.35400
O3400       O  0.77134038  0.31388067  0.79978440    -0.39700
C3401       C  0.39077361  0.40388538  0.81092292    -0.13400
C3402       C  0.40969917  0.39291003  0.80099996     0.17000
C3403       C  0.41133616  0.36892941  0.80249559     0.03300
C3404       C  0.39487487  0.35661094  0.81487340    -0.11900
C3405       C  0.37615142  0.36730300  0.82656039    -0.02900
C3406       C  0.37445114  0.39193006  0.82408922     0.02600
C3407       C  0.42979133  0.40717493  0.79438198     0.09400
N3408       N  0.43019814  0.35687779  0.79221948     0.65800
H3409       H  0.39717713  0.33815609  0.81602005     0.18700
N3410       N  0.35867319  0.40611482  0.83660253     0.76200
H3411       H  0.38996830  0.42250177  0.81057861     0.10200
C3412       C  0.42823778  0.42482969  0.77783825     0.03900
C3413       C  0.44596554  0.44101514  0.77572585    -0.04800
C3414       C  0.46519152  0.44001237  0.79012971    -0.23200
C3415       C  0.46723447  0.42162863  0.80581200     0.13100
C3416       C  0.44966441  0.40547820  0.80778820    -0.12400
N3417       N  0.40845524  0.42686615  0.76357169     0.64800
H3418       H  0.44415621  0.45502919  0.76361674     0.12700
N3419       N  0.48697182  0.41934042  0.82014437     0.61400
H3420       H  0.45105329  0.39219362  0.82075265     0.08800
O3421       O  0.36285002  0.41045964  0.85735608    -0.40000
O3422       O  0.34647032  0.42027742  0.82558442    -0.39200
O3423       O  0.44298282  0.34423485  0.80433840    -0.39200
O3424       O  0.43281591  0.35719673  0.77072214    -0.36900
O3425       O  0.50417550  0.40821269  0.81294737    -0.37800
O3426       O  0.48564212  0.42466109  0.84109872    -0.34000
O3427       O  0.39510062  0.44385641  0.76583031    -0.35400
O3428       O  0.40588713  0.41326561  0.74692944    -0.39700
C3429       C  0.31111809  0.39064656  0.86400437    -0.13400
C3430       C  0.31691666  0.39383661  0.88714878     0.17000
C3431       C  0.33398474  0.37973106  0.89674942     0.03300
C3432       C  0.34645580  0.36469002  0.88278904    -0.11900
C3433       C  0.34404483  0.36445125  0.85855988    -0.02900
C3434       C  0.32400647  0.37567660  0.84980217     0.02600
C3435       C  0.30603531  0.41211730  0.90144662     0.09400
N3436       N  0.33974408  0.38126781  0.92059471     0.65800
H3437       H  0.35867446  0.35384703  0.89150192     0.18700
N3438       N  0.31582941  0.37133468  0.82706924     0.76200
H3439       H  0.29675643  0.40005458  0.85682138     0.10200
C3440       C  0.31339503  0.43509000  0.89924722     0.03900
C3441       C  0.30974287  0.45057562  0.91729866    -0.04800
C3442       C  0.29832996  0.44387406  0.93735368    -0.23200
C3443       C  0.28919627  0.42159889  0.93885677     0.13100
C3444       C  0.29314827  0.40585258  0.92094100    -0.12400
N3445       N  0.32608038  0.44251424  0.87955668     0.64800
H3446       H  0.31649347  0.46785180  0.91594809     0.12700
N3447       N  0.27802326  0.41407348  0.95935784     0.61400
H3448       H  0.28779076  0.38817826  0.92306784     0.08800
O3449       O  0.32263873  0.38338776  0.81044678    -0.40000
O3450       O  0.29847491  0.35874848  0.82445195    -0.39200
O3451       O  0.33918179  0.36352809  0.93302971    -0.39200
O3452       O  0.34822152  0.39954052  0.92848063    -0.36900
O3453       O  0.25657942  0.41125410  0.95958702    -0.37800
O3454       O  0.28977278  0.40837169  0.97661603    -0.34000
O3455       O  0.31663728  0.44243225  0.86011041    -0.35400
O3456       O  0.34475773  0.45307200  0.88213397    -0.39700
C3457       C  0.42445658  0.29902297  0.92390023    -0.13400
C3458       C  0.43246847  0.30979412  0.90385486     0.17000
C3459       C  0.45567457  0.31671904  0.90277864     0.03300
C3460       C  0.46975948  0.31444497  0.92212604    -0.11900
C3461       C  0.46144543  0.30464982  0.94243779    -0.02900
C3462       C  0.43875093  0.29642637  0.94315882     0.02600
C3463       C  0.41556337  0.31888589  0.88691141     0.09400
N3464       N  0.46493286  0.32658339  0.88223677     0.65800
H3465       H  0.48737737  0.32026918  0.92127084     0.18700
N3466       N  0.42937509  0.28745318  0.96398158     0.76200
H3467       H  0.40655498  0.29426681  0.92525053     0.10200
C3468       C  0.40026933  0.30505660  0.87446360     0.03900
C3469       C  0.38364678  0.31528339  0.86006760    -0.04800
C3470       C  0.38090100  0.33948368  0.85849847    -0.23200
C3471       C  0.39732775  0.35302910  0.87089362     0.13100
C3472       C  0.41389843  0.34262701  0.88467649    -0.12400
N3473       N  0.40161911  0.28058457  0.87598895     0.64800
H3474       H  0.37306285  0.30389215  0.85010127     0.12700
N3475       N  0.39762038  0.37758949  0.87032895     0.61400
H3476       H  0.42543682  0.35351710  0.89431891     0.08800
O3477       O  0.42109880  0.26747077  0.96436094    -0.40000
O3478       O  0.42655401  0.30054672  0.98103527    -0.39200
O3479       O  0.47631951  0.34494531  0.88314047    -0.39200
O3480       O  0.46321858  0.31603218  0.86340316    -0.36900
O3481       O  0.39072943  0.38829572  0.88790217    -0.37800
O3482       O  0.41242046  0.38716527  0.85775756    -0.34000
O3483       O  0.38483817  0.26934703  0.88372735    -0.35400
O3484       O  0.41888236  0.27006392  0.86804508    -0.39700
C3485       C  0.31648428  0.30396435  0.82534047    -0.13400
C3486       C  0.31974643  0.30149065  0.80147033     0.17000
C3487       C  0.33766843  0.31455722  0.79145957     0.03300
C3488       C  0.34968462  0.33082144  0.80458121    -0.11900
C3489       C  0.34750559  0.33270295  0.82876934    -0.02900
C3490       C  0.33061012  0.31812316  0.83902690     0.02600
C3491       C  0.30347711  0.28684878  0.78707275     0.09400
N3492       N  0.34473626  0.31107869  0.76807965     0.65800
H3493       H  0.36111599  0.34164623  0.79504844     0.18700
N3494       N  0.32626570  0.31842815  0.86322248     0.76200
H3495       H  0.30255718  0.29504295  0.83371977     0.10200
C3496       C  0.29344288  0.26609984  0.79497544     0.03900
C3497       C  0.27715257  0.25438147  0.78132700    -0.04800
C3498       C  0.27155409  0.26125132  0.75860091    -0.23200
C3499       C  0.28438342  0.28019109  0.74997212     0.13100
C3500       C  0.29771848  0.29380398  0.76469011    -0.12400
N3501       N  0.30061747  0.25567323  0.81607905     0.64800
H3502       H  0.27038506  0.23854792  0.78815941     0.12700
N3503       N  0.28553061  0.28530155  0.72603666     0.61400
H3504       H  0.30436770  0.30967728  0.75782602     0.08800
O3505       O  0.33687831  0.30451649  0.87601108    -0.40000
O3506       O  0.30791308  0.32744850  0.87053903    -0.39200
O3507       O  0.34911127  0.32807837  0.75536420    -0.39200
O3508       O  0.34884285  0.29103952  0.76080202    -0.36900
O3509       O  0.30123502  0.27576855  0.71444392    -0.37800
O3510       O  0.27740178  0.30412004  0.71889708    -0.34000
O3511       O  0.28594054  0.24724495  0.82959647    -0.35400
O3512       O  0.32168563  0.25234733  0.81989295    -0.39700
C3513       C  0.40042681  0.39329897  0.14764687    -0.13400
C3514       C  0.40420595  0.39198370  0.17121000     0.17000
C3515       C  0.38978532  0.37798186  0.18451868     0.03300
C3516       C  0.37242641  0.36493650  0.17391658    -0.11900
C3517       C  0.36890984  0.36533502  0.14976831    -0.02900
C3518       C  0.38355786  0.38032111  0.13681739     0.02600
C3519       C  0.42356262  0.40561137  0.18080576     0.09400
N3520       N  0.39343720  0.37575043  0.20864271     0.65800
H3521       H  0.36292663  0.35341420  0.18481240     0.18700
N3522       N  0.38246723  0.38215971  0.11234266     0.76200
H3523       H  0.41116943  0.40435685  0.13723836     0.10200
C3524       C  0.44580639  0.40292788  0.17146922     0.03900
C3525       C  0.46229762  0.41995144  0.17489438    -0.04800
C3526       C  0.45746123  0.43946698  0.18815823    -0.23200
C3527       C  0.43587776  0.44140554  0.19907296     0.13100
C3528       C  0.41909617  0.42443059  0.19534161    -0.12400
N3529       N  0.45155265  0.38331596  0.15771919     0.64800
H3530       H  0.47899005  0.41808256  0.16682402     0.12700
N3531       N  0.42998449  0.46150443  0.21200217     0.61400
H3532       H  0.40198843  0.42694166  0.20225358     0.08800
O3533       O  0.37233380  0.39929488  0.10374946    -0.40000
O3534       O  0.39815993  0.37269961  0.10070150    -0.39200
O3535       O  0.37857405  0.38320218  0.22259865    -0.39200
O3536       O  0.41039500  0.36437747  0.21595587    -0.36900
O3537       O  0.42941010  0.48088148  0.20228782    -0.37800
O3538       O  0.42281904  0.45959382  0.23235981    -0.34000
O3539       O  0.46027985  0.38592739  0.13805210    -0.35400
O3540       O  0.44990374  0.36339397  0.16607619    -0.39700
C3541       C  0.40365739  0.31312576  0.11460053    -0.13400
C3542       C  0.40152019  0.31517715  0.09086644     0.17000
C3543       C  0.38182053  0.32576078  0.08185098     0.03300
C3544       C  0.36524395  0.33513918  0.09667524    -0.11900
C3545       C  0.36749382  0.33449703  0.12092391    -0.02900
C3546       C  0.38744687  0.32274543  0.12970506     0.02600
C3547       C  0.42106075  0.30841811  0.07581633     0.09400
N3548       N  0.37946613  0.32927018  0.05763746     0.65800
H3549       H  0.35207221  0.34501516  0.08845476     0.18700
N3550       N  0.39326985  0.32261771  0.15365931     0.76200
H3551       H  0.41879579  0.30483753  0.12158143     0.10200
C3552       C  0.44204304  0.32021350  0.07708255     0.03900
C3553       C  0.45921707  0.31582937  0.06089701    -0.04800
C3554       C  0.45633180  0.29939738  0.04350947    -0.23200
C3555       C  0.43591093  0.28629841  0.04310125     0.13100
C3556       C  0.41831155  0.29133114  0.05903365    -0.12400
N3557       N  0.44559857  0.33784984  0.09376312     0.64800
H3558       H  0.47480816  0.32589049  0.06155215     0.12700
N3559       N  0.43225983  0.26869761  0.02626210     0.61400
H3560       H  0.40228844  0.28201751  0.05824682     0.08800
O3561       O  0.41283504  0.32944795  0.15978728    -0.40000
O3562       O  0.38094297  0.31222436  0.16806596    -0.39200
O3563       O  0.36149572  0.32283035  0.04753386    -0.39200
O3564       O  0.39389356  0.34136738  0.04695871    -0.36900
O3565       O  0.44702848  0.25299988  0.02351498    -0.37800
O3566       O  0.41264414  0.26625081  0.01749757    -0.34000
O3567       O  0.45465686  0.33279229  0.11275144    -0.35400
O3568       O  0.44433120  0.35864159  0.08776296    -0.39700
C3569       C  0.30628956  0.37117195  0.09223570    -0.13400
C3570       C  0.30948949  0.39486699  0.09382401     0.17000
C3571       C  0.32035398  0.40361292  0.11335195     0.03300
C3572       C  0.33148779  0.38857138  0.12853089    -0.11900
C3573       C  0.33303416  0.36456602  0.12412055    -0.02900
C3574       C  0.31670888  0.35603470  0.10795780     0.02600
C3575       C  0.30473125  0.40980020  0.07370006     0.09400
N3576       N  0.32157601  0.42782832  0.11715116     0.65800
H3577       H  0.34010922  0.39626335  0.14298932     0.18700
N3578       N  0.31114542  0.33222386  0.10630282     0.76200
H3579       H  0.29628078  0.36432808  0.07819179     0.10200
C3580       C  0.32087333  0.41089460  0.05568246     0.03900
C3581       C  0.31804749  0.42698969  0.03811802    -0.04800
C3582       C  0.29908222  0.44196509  0.03758759    -0.23200
C3583       C  0.28231121  0.44018369  0.05506802     0.13100
C3584       C  0.28543057  0.42437770  0.07315904    -0.12400
N3585       N  0.34073023  0.39628149  0.05538733     0.64800
H3586       H  0.33096627  0.42779647  0.02472941     0.12700
N3587       N  0.26268132  0.45497382  0.05530187     0.61400
H3588       H  0.27300022  0.42375552  0.08700100     0.08800
O3589       O  0.31251745  0.32244589  0.08699540    -0.40000
O3590       O  0.29796880  0.32378955  0.12126541    -0.39200
O3591       O  0.30694594  0.43755934  0.12991081    -0.39200
O3592       O  0.33848529  0.43905977  0.10970272    -0.36900
O3593       O  0.24422672  0.44839715  0.04621501    -0.37800
O3594       O  0.26280585  0.47303696  0.06727200    -0.34000
O3595       O  0.33843069  0.37496693  0.05226216    -0.35400
O3596       O  0.36044825  0.40501717  0.05390310    -0.39700
C3597       C  0.31984532  0.29714611  0.16758313    -0.13400
C3598       C  0.30673706  0.30874152  0.18410819     0.17000
C3599       C  0.30872454  0.33276725  0.18563783     0.03300
C3600       C  0.32310345  0.34466456  0.17038012    -0.11900
C3601       C  0.33681596  0.33338028  0.15365741    -0.02900
C3602       C  0.33449556  0.30874702  0.15230645     0.02600
C3603       C  0.29144650  0.29518894  0.19970838     0.09400
N3604       N  0.29585019  0.34549312  0.20230818     0.65800
H3605       H  0.32358698  0.36322370  0.17165782     0.18700
N3606       N  0.34590980  0.29475071  0.13545990     0.76200
H3607       H  0.31849693  0.27861811  0.16631301     0.10200
C3608       C  0.27450135  0.28051113  0.19097769     0.03900
C3609       C  0.26210713  0.26612793  0.20581542    -0.04800
C3610       C  0.26657173  0.26481098  0.22975089    -0.23200
C3611       C  0.28180377  0.28199584  0.23848818     0.13100
C3612       C  0.29443486  0.29612408  0.22348008    -0.12400
N3613       N  0.26932199  0.28030326  0.16697513     0.64800
H3614       H  0.24861913  0.25624250  0.19802167     0.12700
N3615       N  0.28485323  0.28573708  0.26250807     0.61400
H3616       H  0.30685810  0.30792933  0.23056842     0.08800
O3617       O  0.33749533  0.29316005  0.11563181    -0.40000
O3618       O  0.35928516  0.27900128  0.14213681    -0.39200
O3619       O  0.30613038  0.35762145  0.21694720    -0.39200
O3620       O  0.27423538  0.34611328  0.20127669    -0.36900
O3621       O  0.30463317  0.28307578  0.27090790    -0.37800
O3622       O  0.27097991  0.29901488  0.27267474    -0.34000
O3623       O  0.26986839  0.26166086  0.15591797    -0.35400
O3624       O  0.26257980  0.29844767  0.15717635    -0.39700
C3625       C  0.60375490  0.68798153  0.11368419    -0.13400
C3626       C  0.60730603  0.68474930  0.09023189     0.17000
C3627       C  0.62798743  0.67481478  0.08284044     0.03300
C3628       C  0.64242583  0.66424266  0.09888764    -0.11900
C3629       C  0.63600789  0.66227666  0.12236721    -0.02900
C3630       C  0.61862891  0.67806084  0.12983634     0.02600
C3631       C  0.58803773  0.68832420  0.07417787     0.09400
N3632       N  0.63371680  0.67377282  0.05899063     0.65800
H3633       H  0.65787757  0.65625081  0.09230966     0.18700
N3634       N  0.61472638  0.68326271  0.15349048     0.76200
H3635       H  0.58875592  0.69743715  0.11949173     0.10200
C3636       C  0.57024333  0.67206234  0.07343153     0.03900
C3637       C  0.55325087  0.67383477  0.05672481    -0.04800
C3638       C  0.55315193  0.69197471  0.04091469    -0.23200
C3639       C  0.57048588  0.70881205  0.04215403     0.13100
C3640       C  0.58802253  0.70666072  0.05854849    -0.12400
N3641       N  0.56965812  0.65315324  0.08910393     0.64800
H3642       H  0.54001660  0.66083600  0.05609164     0.12700
N3643       N  0.57115570  0.72744389  0.02620958     0.61400
H3644       H  0.60176208  0.71911890  0.05892160     0.08800
O3645       O  0.59474588  0.68107423  0.16161867    -0.40000
O3646       O  0.62832775  0.69683103  0.16334651    -0.39200
O3647       O  0.64971975  0.68605285  0.05119440    -0.39200
O3648       O  0.62451573  0.65892760  0.04625902    -0.36900
O3649       O  0.56063889  0.74590685  0.03073959    -0.37800
O3650       O  0.58465645  0.72661758  0.00926336    -0.34000
O3651       O  0.56243923  0.65629951  0.10929606    -0.35400
O3652       O  0.57197410  0.63292124  0.08164056    -0.39700
C3653       C  0.66694809  0.59776673  0.09397653    -0.13400
C3654       C  0.69053494  0.59606449  0.09719846     0.17000
C3655       C  0.70104412  0.60991707  0.11376094     0.03300
C3656       C  0.68776565  0.62554168  0.12666356    -0.11900
C3657       C  0.66363618  0.62769567  0.12361716    -0.02900
C3658       C  0.65344460  0.61284681  0.10689067     0.02600
C3659       C  0.70314618  0.57931149  0.08273809     0.09400
N3660       N  0.72508102  0.60790963  0.11808654     0.65800
H3661       H  0.69659721  0.63496286  0.13985831     0.18700
N3662       N  0.62924417  0.61221625  0.10287263     0.76200
H3663       H  0.65873892  0.58685995  0.08137256     0.10200
C3664       C  0.70452026  0.55609656  0.08933628     0.03900
C3665       C  0.70908029  0.53920154  0.07280709    -0.04800
C3666       C  0.71181042  0.54495694  0.04962923    -0.23200
C3667       C  0.71243125  0.56837036  0.04330101     0.13100
C3668       C  0.70833842  0.58534524  0.06000648    -0.12400
N3669       N  0.69904317  0.54926240  0.11225101     0.64800
H3670       H  0.70900241  0.52141338  0.07786843     0.12700
N3671       N  0.71547959  0.57517118  0.01986290     0.61400
H3672       H  0.70701145  0.60317188  0.05477493     0.08800
O3673       O  0.61802739  0.59578161  0.11133905    -0.40000
O3674       O  0.62149282  0.62175667  0.08506023    -0.39200
O3675       O  0.73837725  0.62385749  0.11206880    -0.39200
O3676       O  0.73240783  0.59217479  0.13107172    -0.36900
O3677       O  0.70214965  0.56770033  0.00460179    -0.37800
O3678       O  0.72906048  0.59128228  0.01499828    -0.34000
O3679       O  0.67853506  0.54479430  0.11752605    -0.35400
O3680       O  0.71495347  0.54396737  0.12592371    -0.39700
C3681       C  0.62440566  0.59096642  0.17167868    -0.13400
C3682       C  0.60089239  0.59271984  0.16777222     0.17000
C3683       C  0.59224359  0.61200750  0.15621393     0.03300
C3684       C  0.60729564  0.62887700  0.14812639    -0.11900
C3685       C  0.63143616  0.62738051  0.15120840    -0.02900
C3686       C  0.63976824  0.60756260  0.16348400     0.02600
C3687       C  0.58593165  0.57305691  0.17357364     0.09400
N3688       N  0.56834732  0.61379375  0.15078918     0.65800
H3689       H  0.59956937  0.64178420  0.13751604     0.18700
N3690       N  0.66377295  0.60226258  0.16550246     0.76200
H3691       H  0.63108855  0.57582990  0.18025588     0.10200
C3692       C  0.58484152  0.55395351  0.15881474     0.03900
C3693       C  0.56922138  0.53639335  0.16330306    -0.04800
C3694       C  0.55481690  0.53708716  0.18266251    -0.23200
C3695       C  0.55619164  0.55603080  0.19770692     0.13100
C3696       C  0.57162465  0.57392982  0.19298476    -0.12400
N3697       N  0.59879344  0.55265661  0.13861161     0.64800
H3698       H  0.56823526  0.52214776  0.15137541     0.12700
N3699       N  0.54087956  0.55816742  0.21677241     0.61400
H3700       H  0.57209168  0.58877994  0.20418517     0.08800
O3701       O  0.67657701  0.61419136  0.17811777    -0.40000
O3702       O  0.67122419  0.58325845  0.15804678    -0.39200
O3703       O  0.55705777  0.63130702  0.15695749    -0.39200
O3704       O  0.55942537  0.59965232  0.13708115    -0.36900
O3705       O  0.54744643  0.55236906  0.23655614    -0.37800
O3706       O  0.52185203  0.56830237  0.21431291    -0.34000
O3707       O  0.61988413  0.54798095  0.14031581    -0.35400
O3708       O  0.58946131  0.55255546  0.11910320    -0.39700
C3709       C  0.67374304  0.67555505  0.19305201    -0.13400
C3710       C  0.69001238  0.68982673  0.18267678     0.17000
C3711       C  0.69248480  0.68914603  0.15869239     0.03300
C3712       C  0.67891321  0.67427154  0.14571146    -0.11900
C3713       C  0.66254530  0.65935715  0.15572292    -0.02900
C3714       C  0.65964814  0.66086048  0.18021795     0.02600
C3715       C  0.70477639  0.70461886  0.19737355     0.09400
N3716       N  0.70838392  0.70384099  0.14711338     0.65800
H3717       H  0.68122938  0.67437334  0.12726616     0.18700
N3718       N  0.64238278  0.64860097  0.19279409     0.76200
H3719       H  0.67171404  0.67603579  0.21153951     0.10200
C3720       C  0.69526377  0.71962271  0.21381563     0.03900
C3721       C  0.70961607  0.73147092  0.22896934    -0.04800
C3722       C  0.73381597  0.72878042  0.22860995    -0.23200
C3723       C  0.74318867  0.71535556  0.21015470     0.13100
C3724       C  0.72867474  0.70309307  0.19547183    -0.12400
N3725       N  0.67101838  0.72376333  0.21473450     0.64800
H3726       H  0.70131938  0.74353311  0.24031644     0.12700
N3727       N  0.76729282  0.71468522  0.20518362     0.61400
H3728       H  0.73627883  0.69205572  0.18251743     0.08800
O3729       O  0.64833495  0.63636250  0.20966327    -0.40000
O3730       O  0.62177546  0.65517717  0.19170933    -0.39200
O3731       O  0.72298263  0.69541146  0.13341693    -0.39200
O3732       O  0.70677366  0.72537051  0.14924187    -0.36900
O3733       O  0.77443248  0.72330115  0.18664003    -0.37800
O3734       O  0.78048444  0.70166379  0.21639972    -0.34000
O3735       O  0.66040564  0.72236796  0.23358772    -0.35400
O3736       O  0.66060779  0.73097777  0.19717269    -0.39700
C3737       C  0.66754841  0.39358973  0.10024909    -0.13400
C3738       C  0.69141414  0.39351138  0.09899799     0.17000
C3739       C  0.70372287  0.37851667  0.11332897     0.03300
C3740       C  0.69196345  0.36267705  0.12733907    -0.11900
C3741       C  0.66773983  0.36042667  0.12661582    -0.02900
C3742       C  0.65562338  0.37787513  0.11392217     0.02600
C3743       C  0.70251565  0.41058385  0.08359702     0.09400
N3744       N  0.72816287  0.37958702  0.11428320     0.65800
H3745       H  0.70216827  0.35250968  0.13891048     0.18700
N3746       N  0.63119144  0.38054814  0.11485976     0.76200
H3747       H  0.65790499  0.40603186  0.09027105     0.10200
C3748       C  0.70801300  0.40517812  0.06060236     0.03900
C3749       C  0.71238739  0.42288774  0.04472901    -0.04800
C3750       C  0.71091468  0.44605658  0.05132373    -0.23200
C3751       C  0.70649969  0.45130796  0.07457179     0.13100
C3752       C  0.70270585  0.43363255  0.09047838    -0.12400
N3753       N  0.70717528  0.38196884  0.05269152     0.64800
H3754       H  0.71535678  0.41856226  0.02687245     0.12700
N3755       N  0.70408687  0.47454809  0.08203254     0.61400
H3756       H  0.69800451  0.43803788  0.10795009     0.08800
O3757       O  0.62292649  0.39836685  0.12414026    -0.40000
O3758       O  0.61874515  0.36929245  0.10130653    -0.39200
O3759       O  0.73767794  0.39288631  0.12840578    -0.39200
O3760       O  0.74014059  0.36524377  0.10321397    -0.36900
O3761       O  0.68572289  0.48526138  0.07771136    -0.37800
O3762       O  0.71734026  0.48210727  0.09732901    -0.34000
O3763       O  0.69032006  0.37538283  0.04091222    -0.35400
O3764       O  0.72489180  0.36948592  0.05386151    -0.39700
C3765       C  0.62750972  0.38702970  0.18035369    -0.13400
C3766       C  0.60397754  0.38473007  0.17633006     0.17000
C3767       C  0.59641776  0.36619374  0.16297055     0.03300
C3768       C  0.61243757  0.35145182  0.15255168    -0.11900
C3769       C  0.63655843  0.35419294  0.15505668    -0.02900
C3770       C  0.64374660  0.37208388  0.17032145     0.02600
C3771       C  0.58805634  0.40383455  0.18265143     0.09400
N3772       N  0.57254184  0.36322775  0.15797152     0.65800
H3773       H  0.60517852  0.33959107  0.14057754     0.18700
N3774       N  0.66751392  0.37735121  0.17364032     0.76200
H3775       H  0.63346418  0.40137783  0.19054421     0.10200
C3776       C  0.56841313  0.40064861  0.19662014     0.03900
C3777       C  0.55206578  0.41845819  0.19864307    -0.04800
C3778       C  0.55503759  0.43938059  0.18706575    -0.23200
C3779       C  0.57504488  0.44279551  0.17389902     0.13100
C3780       C  0.59123004  0.42506665  0.17174719    -0.12400
N3781       N  0.56465755  0.37938943  0.20841857     0.64800
H3782       H  0.53674327  0.41577655  0.20885419     0.12700
N3783       N  0.57926737  0.46434995  0.16286785     0.61400
H3784       H  0.60619229  0.42770756  0.16099886     0.08800
O3785       O  0.67475941  0.39703529  0.16825069    -0.40000
O3786       O  0.67967742  0.36482920  0.18646025    -0.39200
O3787       O  0.56127546  0.37907524  0.14832458    -0.39200
O3788       O  0.56329935  0.34391297  0.16108202    -0.36900
O3789       O  0.58478123  0.46495265  0.14192092    -0.37800
O3790       O  0.57989797  0.48254077  0.17462483    -0.34000
O3791       O  0.58009943  0.37110474  0.22115030    -0.35400
O3792       O  0.54518668  0.37000929  0.20789460    -0.39700
C3793       C  0.58606074  0.28125965  0.06535752    -0.13400
C3794       C  0.58654937  0.29975461  0.08080111     0.17000
C3795       C  0.56939083  0.31683677  0.07935279     0.03300
C3796       C  0.55264841  0.31568526  0.06227077    -0.11900
C3797       C  0.55253328  0.29774974  0.04619795    -0.02900
C3798       C  0.56925124  0.28011408  0.04808705     0.02600
C3799       C  0.60748696  0.30419953  0.09451188     0.09400
N3800       N  0.56944504  0.33619007  0.09441761     0.65800
H3801       H  0.53987585  0.32925507  0.06133794     0.18700
N3802       N  0.57064737  0.26207368  0.03148304     0.76200
H3803       H  0.59963287  0.26846953  0.06578334     0.10200
C3804       C  0.61003788  0.29751736  0.11751921     0.03900
C3805       C  0.62816835  0.30659531  0.13057309    -0.04800
C3806       C  0.64239895  0.32429867  0.12176029    -0.23200
C3807       C  0.64262098  0.32667857  0.09712016     0.13100
C3808       C  0.62474580  0.31710585  0.08427133    -0.12400
N3809       N  0.59338073  0.28318697  0.12839044     0.64800
H3810       H  0.62860162  0.30257731  0.14870284     0.12700
N3811       N  0.65968793  0.33916707  0.08440966     0.61400
H3812       H  0.62374049  0.32059873  0.06602690     0.08800
O3813       O  0.56768170  0.24150269  0.03758790    -0.40000
O3814       O  0.57779454  0.26635158  0.01147796    -0.39200
O3815       O  0.57349899  0.35589246  0.08640306    -0.39200
O3816       O  0.56001355  0.33446957  0.11382204    -0.36900
O3817       O  0.68044398  0.33311779  0.08531386    -0.37800
O3818       O  0.65349377  0.35220379  0.06822299    -0.34000
O3819       O  0.59941901  0.26409473  0.13672354    -0.35400
O3820       O  0.57359286  0.29098924  0.13269232    -0.39700
C3821       C  0.71535209  0.28710139  0.22434335    -0.13400
C3822       C  0.71259161  0.28125093  0.20107305     0.17000
C3823       C  0.72589446  0.26259065  0.19265041     0.03300
C3824       C  0.74208957  0.25169234  0.20689325    -0.11900
C3825       C  0.74294430  0.25534374  0.23090030    -0.02900
C3826       C  0.72920659  0.27402425  0.23933494     0.02600
C3827       C  0.69716533  0.29562121  0.18561211     0.09400
N3828       N  0.72235021  0.25338796  0.17007239     0.65800
H3829       H  0.75336512  0.23962675  0.19861764     0.18700
N3830       N  0.72977955  0.28086128  0.26292217     0.76200
H3831       H  0.70650815  0.30198355  0.23123286     0.10200
C3832       C  0.67586753  0.30491228  0.19297965     0.03900
C3833       C  0.66313150  0.31951253  0.17835437    -0.04800
C3834       C  0.66989177  0.32449881  0.15539158    -0.23200
C3835       C  0.68954309  0.31210436  0.14743034     0.13100
C3836       C  0.70380928  0.30018118  0.16286737    -0.12400
N3837       N  0.66619277  0.29889745  0.21481626     0.64800
H3838       H  0.64706772  0.32600578  0.18506885     0.12700
N3839       N  0.69464863  0.30968937  0.12358276     0.61400
H3840       H  0.71990611  0.29347366  0.15639636     0.08800
O3841       O  0.73932696  0.29953074  0.26821476    -0.40000
O3842       O  0.71623764  0.27169277  0.27709902    -0.39200
O3843       O  0.73925870  0.24710445  0.15796981    -0.39200
O3844       O  0.70230384  0.24878835  0.16340319    -0.36900
O3845       O  0.71421499  0.31552560  0.11635746    -0.37800
O3846       O  0.68362779  0.29487519  0.11235034    -0.34000
O3847       O  0.65737846  0.31422080  0.22744741    -0.35400
O3848       O  0.66423209  0.27804442  0.22041555    -0.39700
C3849       C  0.38427359  0.67027451  0.09065553    -0.13400
C3850       C  0.40736567  0.66376683  0.09087495     0.17000
C3851       C  0.41493698  0.64843021  0.10783149     0.03300
C3852       C  0.39932799  0.63936794  0.12369617    -0.11900
C3853       C  0.37558247  0.64539676  0.12402843    -0.02900
C3854       C  0.36839152  0.66111378  0.10642776     0.02600
C3855       C  0.42264981  0.67002273  0.07132830     0.09400
N3856       N  0.43842283  0.64098821  0.10850853     0.65800
H3857       H  0.40625554  0.62608661  0.13449196     0.18700
N3858       N  0.34476193  0.66645729  0.10261742     0.76200
H3859       H  0.37814581  0.68144972  0.07709140     0.10200
C3860       C  0.42910968  0.65335334  0.05492790     0.03900
C3861       C  0.44576592  0.65857089  0.03834984    -0.04800
C3862       C  0.45581400  0.68046728  0.03707392    -0.23200
C3863       C  0.44849334  0.69746994  0.05290306     0.13100
C3864       C  0.43219965  0.69206249  0.06995033    -0.12400
N3865       N  0.41860722  0.63113719  0.05472127     0.64800
H3866       H  0.45063615  0.64537456  0.02612991     0.12700
N3867       N  0.45797359  0.72003533  0.05246365     0.61400
H3868       H  0.42734763  0.70498069  0.08247074     0.08800
O3869       O  0.33435404  0.65568406  0.08703495    -0.40000
O3870       O  0.33743846  0.68613155  0.10819214    -0.39200
O3871       O  0.45427083  0.65557780  0.11017157    -0.39200
O3872       O  0.44324975  0.61984274  0.10956571    -0.36900
O3873       O  0.44857016  0.73545851  0.04047006    -0.37800
O3874       O  0.47336590  0.72541894  0.06662495    -0.34000
O3875       O  0.39704078  0.62954010  0.05387284    -0.35400
O3876       O  0.43078208  0.61327285  0.05245726    -0.39700
C3877       C  0.38809216  0.57803555  0.16747386    -0.13400
C3878       C  0.40579581  0.58902083  0.17897146     0.17000
C3879       C  0.40470810  0.61288697  0.18206027     0.03300
C3880       C  0.38685843  0.62555271  0.17190022    -0.11900
C3881       C  0.37114202  0.61514649  0.15652401    -0.02900
C3882       C  0.37059773  0.59035294  0.15652632     0.02600
C3883       C  0.42624707  0.57506286  0.18477487     0.09400
N3884       N  0.42257527  0.62466777  0.19384988     0.65800
H3885       H  0.38720202  0.64409344  0.17350747     0.18700
N3886       N  0.35309109  0.57682438  0.14578463     0.76200
H3887       H  0.38842892  0.55944951  0.16613953     0.10200
C3888       C  0.42522790  0.55806670  0.20191600     0.03900
C3889       C  0.44232289  0.54108598  0.20307963    -0.04800
C3890       C  0.46036647  0.54055286  0.18707914    -0.23200
C3891       C  0.46206798  0.55829849  0.17059624     0.13100
C3892       C  0.44490035  0.57526862  0.16952872    -0.12400
N3893       N  0.40621776  0.55717712  0.21741154     0.64800
H3894       H  0.44093336  0.52768629  0.21590938     0.12700
N3895       N  0.48105386  0.55930503  0.15490057     0.61400
H3896       H  0.44561404  0.58818760  0.15615051     0.08800
O3897       O  0.33283769  0.57755103  0.15334418    -0.40000
O3898       O  0.35891796  0.55996478  0.13338246    -0.39200
O3899       O  0.43815731  0.63457900  0.18256426    -0.39200
O3900       O  0.42117174  0.62767994  0.21524294    -0.36900
O3901       O  0.50135809  0.55830917  0.16232697    -0.37800
O3902       O  0.47765639  0.56358434  0.13394962    -0.34000
O3903       O  0.39130437  0.54169338  0.21529919    -0.35400
O3904       O  0.40519187  0.57085158  0.23418518    -0.39700
C3905       C  0.31042915  0.60147863  0.10166421    -0.13400
C3906       C  0.32465374  0.58780541  0.08777302     0.17000
C3907       C  0.34846602  0.58934864  0.09025005     0.03300
C3908       C  0.35761820  0.60404108  0.10653977    -0.11900
C3909       C  0.34389787  0.61752749  0.12166666    -0.02900
C3910       C  0.31950631  0.61676757  0.11815576     0.02600
C3911       C  0.31503222  0.57295570  0.06950428     0.09400
N3912       N  0.36373066  0.57509010  0.07710106     0.65800
H3913       H  0.37607489  0.60363714  0.10836871     0.18700
N3914       N  0.30350382  0.63171419  0.12963097     0.76200
H3915       H  0.29205478  0.60093996  0.09896902     0.10200
C3916       C  0.30079866  0.55407088  0.07455679     0.03900
C3917       C  0.29520188  0.53838251  0.05711442    -0.04800
C3918       C  0.30432799  0.54091382  0.03494143    -0.23200
C3919       C  0.31757496  0.56037247  0.02972516     0.13100
C3920       C  0.32244508  0.57638632  0.04683573    -0.12400
N3921       N  0.29366360  0.54951874  0.09760078     0.64800
H3922       H  0.28520739  0.52329808  0.06130714     0.12700
N3923       N  0.32675320  0.56370842  0.00720775     0.61400
H3924       H  0.33311543  0.59101340  0.04267508     0.08800
O3925       O  0.30483004  0.65313003  0.12670996    -0.40000
O3926       O  0.28473705  0.62361578  0.13676570    -0.39200
O3927       O  0.37954291  0.58404300  0.06534584    -0.39200
O3928       O  0.36267875  0.55350165  0.07878635    -0.36900
O3929       O  0.31475286  0.57353625  0.99210453    -0.37800
O3930       O  0.34774299  0.55985037  0.00339454    -0.34000
O3931       O  0.27260291  0.54957648  0.10266084    -0.35400
O3932       O  0.30820605  0.54323577  0.11235672    -0.39700
C3933       C  0.31336250  0.65583694  0.18507322    -0.13400
C3934       C  0.31639518  0.67955570  0.18339799     0.17000
C3935       C  0.33410873  0.68772476  0.16919984     0.03300
C3936       C  0.34753932  0.67225794  0.15624568    -0.11900
C3937       C  0.34333032  0.64822971  0.15590517    -0.02900
C3938       C  0.32689846  0.64022635  0.17243706     0.02600
C3939       C  0.30257761  0.69518291  0.19856610     0.09400
N3940       N  0.33853362  0.71182468  0.16750807     0.65800
H3941       H  0.36138990  0.67962260  0.14645946     0.18700
N3942       N  0.32453310  0.61651684  0.17825626     0.76200
H3943       H  0.30096190  0.64922139  0.19726278     0.10200
C3944       C  0.27845058  0.69478698  0.19875259     0.03900
C3945       C  0.26617437  0.70858216  0.21434256    -0.04800
C3946       C  0.27699625  0.72433931  0.22938666    -0.23200
C3947       C  0.30155184  0.72228427  0.23090025     0.13100
C3948       C  0.31373075  0.70861027  0.21498144    -0.12400
N3949       N  0.26606712  0.68101952  0.18266608     0.64800
H3950       H  0.24766959  0.70800475  0.21365559     0.12700
N3951       N  0.31464500  0.73164734  0.24942926     0.61400
H3952       H  0.33224377  0.70742931  0.21631739     0.08800
O3953       O  0.30500599  0.60743808  0.17642603    -0.40000
O3954       O  0.33824052  0.60817018  0.19280083    -0.39200
O3955       O  0.35799699  0.71959318  0.17274845    -0.39200
O3956       O  0.32343629  0.72519293  0.15949795    -0.36900
O3957       O  0.31252442  0.72306230  0.26919142    -0.37800
O3958       O  0.33256530  0.74289667  0.24494950    -0.34000
O3959       O  0.25034166  0.66786881  0.18956210    -0.35400
O3960       O  0.26931656  0.68360607  0.16140295    -0.39700
loop_ 
_geom_bond_atom_site_label_1 
_geom_bond_atom_site_label_2 
_geom_bond_distance 
_geom_bond_site_symmetry_2 
_ccdc_geom_bond_type 
C1         C3853   1.599       .  S
C1         C3881   1.577       .  S
C1         C3909   1.569       .  S
C1         C3937   1.582       .  S
C2         C3741   1.578       .  S
C2         C3769   1.587       .  S
C2         C3806   1.581       .  S
C2         C3834   1.591       .  S
C3         C3629   1.583       .  S
C3         C3657   1.578       .  S
C3         C3685   1.573       .  S
C3         C3713   1.568       .  S
C4         C3517   1.584       .  S
C4         C3545   1.574       .  S
C4         C3573   1.588       .  S
C4         C3601   1.575       .  S
O5           V13   1.919       .  S
O5           C15   1.268       .  A
O6           V13   1.920       .  S
O6           C16   1.270       .  A
O7           V13   1.899       .  S
O7           C17   1.263       .  A
O8           V13   1.909       .  S
O8           C18   1.265       .  A
O9           V14   1.900       .  S
O9           C18   1.265       .  A
O10          V14   1.903       .  S
O10          C17   1.266       .  A
O11          V14   1.883       .  S
O11          C16   1.260       .  A
O12          V14   1.891       .  S
O12          C15   1.262       .  A
V13          V14   2.087       .  T
C15        C3526   1.480       .  S
C16        C3694   1.482       .  S
C17        C3890   1.478       .  S
C18        C3778   1.478       .  S
C19        C3405   1.587       .  S
C19        C3433   1.573       .  S
C19        C3470   1.586       .  S
C19        C3489   1.593       .  S
C20        C3293   1.578       .  S
C20        C3321   1.587       .  S
C20        C3349   1.583       .  S
C20        C3377   1.580       .  S
C21        C3181   1.583       .  S
C21        C3209   1.580       .  S
C21        C3237   1.574       .  S
C21        C3265   1.585       .  S
C22        C3069   1.584       .  S
C22        C3097   1.597       .  S
C22        C3125   1.574       .  S
C22        C3162   1.585       .  S
O23          V31   1.925       .  S
O23          C33   1.270       .  A
O24          V31   1.922   1_554  S
O24          C34   1.269       .  A
O25          V31   1.908   1_554  S
O25          C35   1.264       .  A
O26          V31   1.912       .  S
O26          C36   1.266       .  A
O27          V32   1.892       .  S
O27          C36   1.262       .  A
O28          V32   1.895   1_554  S
O28          C35   1.263       .  A
O29          V32   1.888   1_554  S
O29          C34   1.263       .  A
O30          V32   1.882       .  S
O30          C33   1.261       .  A
V31          V32   2.087       .  T
C33        C3134   1.485       .  S
C34        C3582   1.489       .  S
C35        C3918   1.472       .  S
C36        C3442   1.473       .  S
O37          V45   1.890   1_554  S
O37          C47   1.263       .  A
O38          V45   1.893       .  S
O38          C48   1.264       .  A
O39          V45   1.896       .  S
O39          C49   1.263       .  A
O40          V45   1.896   1_554  S
O40          C50   1.265       .  A
O41          V46   1.919   1_554  S
O41          C50   1.269       .  A
O42          V46   1.915       .  S
O42          C49   1.268       .  A
O43          V46   1.909       .  S
O43          C48   1.267       .  A
O44          V46   1.909   1_554  S
O44          C47   1.266       .  A
V45          V46   2.082       .  T
C47        C3638   1.478       .  S
C48        C3078   1.490       .  S
C49        C3218   1.483       .  S
C50        C3862   1.496       .  S
O51          V59   1.900       .  S
O51          C61   1.264       .  A
O52          V59   1.902   1_556  S
O52          C62   1.265       .  A
O53          V59   1.897       .  S
O53          C63   1.262       .  A
O54          V59   1.896   1_556  S
O54          C64   1.265       .  A
O55          V60   1.918   1_556  S
O55          C64   1.268       .  A
O56          V60   1.925       .  S
O56          C63   1.270       .  A
O57          V60   1.912   1_556  S
O57          C62   1.267       .  A
O58          V60   1.913       .  S
O58          C61   1.266       .  A
V59          V60   2.084       .  T
C61        C3666   1.477       .  S
C62        C3302   1.485       .  S
C63        C3750   1.484       .  S
C64        C3190   1.496       .  S
O65          V73   1.918       .  S
O65          C75   1.269       .  A
O66          V73   1.916   1_554  S
O66          C76   1.267       .  A
O67          V73   1.908       .  S
O67          C77   1.265       .  A
O68          V73   1.909   1_554  S
O68          C78   1.266       .  A
O69          V74   1.900   1_554  S
O69          C78   1.266       .  A
O70          V74   1.904       .  S
O70          C77   1.265       .  A
O71          V74   1.888   1_554  S
O71          C76   1.262       .  A
O72          V74   1.884       .  S
O72          C75   1.261       .  A
V73          V74   2.084       .  T
C75        C3358   1.487       .  S
C76        C3554   1.483       .  S
C77        C3461   1.478       .  S
C78        C3797   1.488       .  S
O79          V87   1.887       .  S
O79          C89   1.261       .  A
O80          V87   1.895       .  S
O80          C90   1.263       .  A
O81          V87   1.908       .  S
O81          C91   1.267       .  A
O82          V87   1.901       .  S
O82          C92   1.266       .  A
O83          V88   1.914       .  S
O83          C92   1.267       .  A
O84          V88   1.913       .  S
O84          C91   1.265       .  A
O85          V88   1.919       .  S
O85          C90   1.268       .  A
O86          V88   1.920       .  S
O86          C89   1.269       .  A
V87          V88   2.086       .  T
C89        C3414   1.481       .  S
C90        C3246   1.485       .  S
C91        C3106   1.487       .  S
C92        C3330   1.489       .  S
C93        C2966   1.597       .  S
C93        C2985   1.598       .  S
C93        C3013   1.599       .  S
C93        C3041   1.605       .  S
C94        C2854   1.583       .  S
C94        C2873   1.580       .  S
C94        C2901   1.583       .  S
C94        C2938   1.587       .  S
C95        C2742   1.586       .  S
C95        C2761   1.580       .  S
C95        C2798   1.583       .  S
C95        C2817   1.578       .  S
C96        C2621   1.578       .  S
C96        C2649   1.571       .  S
C96        C2686   1.575       .  S
C96        C2705   1.574       .  S
O97         V105   1.899       .  S
O97         C107   1.265       .  A
O98         V105   1.902       .  S
O98         C108   1.266       .  A
O99         V105   1.891       .  S
O99         C109   1.263       .  A
O100        V105   1.890       .  S
O100        C110   1.262       .  A
O101        V106   1.914       .  S
O101        C110   1.267       .  A
O102        V106   1.911       .  S
O102        C109   1.267       .  A
O103        V106   1.907       .  S
O103        C108   1.266       .  A
O104        V106   1.909       .  S
O104        C107   1.266       .  A
V105        V106   2.085       .  T
C107       C2630   1.486       .  S
C108       C3022   1.492       .  S
C109       C2770   1.486       .  S
C110       C2882   1.475       .  S
C111       C2509   1.579       .  S
C111       C2537   1.579       .  S
C111       C2565   1.590       .  S
C111       C2593   1.568       .  S
C112       C2406   1.575       .  S
C112       C2434   1.589       .  S
C112       C2453   1.572       .  S
C112       C2481   1.588       .  S
C113       C2294   1.584       .  S
C113       C2313   1.575       .  S
C113       C2350   1.585       .  S
C113       C2369   1.578       .  S
C114       C2173   1.585       .  S
C114       C2201   1.579       .  S
C114       C2229   1.577       .  S
C114       C2257   1.572       .  S
O115        V123   1.915   1_545  S
O115        C125   1.267       .  A
O116        V123   1.915       .  S
O116        C126   1.268       .  A
O117        V123   1.924   1_545  S
O117        C127   1.268       .  A
O118        V123   1.922       .  S
O118        C128   1.270       .  A
O119        V124   1.886       .  S
O119        C128   1.262       .  A
O120        V124   1.880   1_545  S
O120        C127   1.264       .  A
O121        V124   1.886       .  S
O121        C126   1.262       .  A
O122        V124   1.885   1_545  S
O122        C125   1.261       .  A
V123        V124   2.082       .  T
C125       C2957   1.471       .  S
C126       C2518   1.481       .  S
C127       C2845   1.493       .  S
C128       C2210   1.494       .  S
O129        V137   1.914       .  S
O129        C139   1.267       .  A
O130        V137   1.912   1_545  S
O130        C140   1.267       .  A
O131        V137   1.913       .  S
O131        C141   1.268       .  A
O132        V137   1.918   1_545  S
O132        C142   1.269       .  A
O133        V138   1.895   1_545  S
O133        C142   1.265       .  A
O134        V138   1.894       .  S
O134        C141   1.263       .  A
O135        V138   1.891   1_545  S
O135        C140   1.263       .  A
O136        V138   1.892       .  S
O136        C139   1.264       .  A
V137        V138   2.081       .  T
C139       C2182   1.481       .  S
C140       C2733   1.478       .  S
C141       C2285   1.486       .  S
C142       C2994   1.491       .  S
O143        V151   1.896       .  S
O143        C153   1.263       .  A
O144        V151   1.901   1_565  S
O144        C154   1.266       .  A
O145        V151   1.900   1_565  S
O145        C155   1.264       .  A
O146        V151   1.897       .  S
O146        C156   1.265       .  A
O147        V152   1.916   1_545  S
O147        C156   1.268       .  A
O148        V152   1.912       .  S
O148        C155   1.267       .  A
O149        V152   1.908       .  S
O149        C154   1.266       .  A
O150        V152   1.912   1_545  S
O150        C153   1.265       .  A
V151        V152   2.082   1_545  T
C153       C2658   1.473       .  S
C154       C2341   1.492       .  S
C155       C2462   1.480       .  S
C156       C2789   1.497       .  S
O157        V165   1.894       .  S
O157        C167   1.264       .  A
O158        V165   1.886   1_545  S
O158        C168   1.262       .  A
O159        V165   1.902       .  S
O159        C169   1.265       .  A
O160        V165   1.900   1_545  S
O160        C170   1.265       .  A
O161        V166   1.919   1_545  S
O161        C170   1.267       .  A
O162        V166   1.918       .  S
O162        C169   1.268       .  A
O163        V166   1.915   1_545  S
O163        C168   1.268       .  A
O164        V166   1.910       .  S
O164        C167   1.266       .  A
V165        V166   2.085       .  T
C167       C2574   1.484       .  S
C168       C2677   1.482       .  S
C169       C2425   1.489       .  S
C170       C2910   1.486       .  S
O171        V179   1.912       .  S
O171        C181   1.267       .  A
O172        V179   1.913       .  S
O172        C182   1.266       .  A
O173        V179   1.915       .  S
O173        C183   1.268       .  A
O174        V179   1.917       .  S
O174        C184   1.268       .  A
O175        V180   1.884       .  S
O175        C184   1.263       .  A
O176        V180   1.885       .  S
O176        C183   1.263       .  A
O177        V180   1.889       .  S
O177        C182   1.261       .  A
O178        V180   1.891       .  S
O178        C181   1.263       .  A
V179        V180   2.084       .  T
C181       C2322   1.481       .  S
C182       C2546   1.470       .  S
C183       C2238   1.488       .  S
C184       C2397   1.482       .  S
C185       C2070   1.576       .  S
C185       C2089   1.582       .  S
C185       C2126   1.576       .  S
C185       C2145   1.575       .  S
C186       C1949   1.578       .  S
C186       C1977   1.580       .  S
C186       C2005   1.575       .  S
C186       C2033   1.581       .  S
C187       C1837   1.564       .  S
C187       C1865   1.579       .  S
C187       C1893   1.591       .  S
C187       C1921   1.592       .  S
C188       C1734   1.579       .  S
C188       C1762   1.573       .  S
C188       C1790   1.584       .  S
C188       C1818   1.579       .  S
O189        V197   1.908       .  S
O189        C199   1.266       .  A
O190        V197   1.908   1_655  S
O190        C200   1.264       .  A
O191        V197   1.914   1_655  S
O191        C201   1.267       .  A
O192        V197   1.916       .  S
O192        C202   1.269       .  A
O193        V198   1.887       .  S
O193        C202   1.260       .  A
O194        V198   1.893   1_655  S
O194        C201   1.263       .  A
O195        V198   1.898   1_655  S
O195        C200   1.265       .  A
O196        V198   1.897       .  S
O196        C199   1.265       .  A
V197        V198   2.085       .  T
C199       C1669   1.489       .  S
C200       C1846   1.475       .  S
C201       C1725   1.480       .  S
C202       C1697   1.489       .  S
O203        V211   1.913   1_655  S
O203        C213   1.267       .  A
O204        V211   1.911       .  S
O204        C214   1.266       .  A
O205        V211   1.910       .  S
O205        C215   1.267       .  A
O206        V211   1.911   1_655  S
O206        C216   1.267       .  A
O207        V212   1.896   1_655  S
O207        C216   1.264       .  A
O208        V212   1.901       .  S
O208        C215   1.266       .  A
O209        V212   1.890       .  S
O209        C214   1.262       .  A
O210        V212   1.887   1_655  S
O210        C213   1.262       .  A
V211        V212   2.085       .  T
C213       C1753   1.478       .  S
C214       C1650   1.473       .  S
C215       C1613   1.496       .  S
C216       C2061   1.482       .  S
O217        V225   1.887   1_655  S
O217        C227   1.261       .  A
O218        V225   1.896       .  S
O218        C228   1.262       .  A
O219        V225   1.900       .  S
O219        C229   1.265       .  A
O220        V225   1.906   1_655  S
O220        C230   1.268       .  A
O221        V226   1.906   1_655  S
O221        C230   1.264       .  A
O222        V226   1.911       .  S
O222        C229   1.265       .  A
O223        V226   1.920       .  S
O223        C228   1.269       .  A
O224        V226   1.926   1_655  S
O224        C227   1.270       .  A
V225        V226   2.086       .  T
C227       C1902   1.485       .  S
C228       C1557   1.483       .  S
C229       C1585   1.479       .  S
C230       C2014   1.490       .  S
O231        V239   1.914       .  S
O231        C241   1.267       .  A
O232        V239   1.918   1_655  S
O232        C242   1.267       .  A
O233        V239   1.919   1_655  S
O233        C243   1.269       .  A
O234        V239   1.918       .  S
O234        C244   1.267       .  A
O235        V240   1.891       .  S
O235        C244   1.263       .  A
O236        V240   1.894   1_655  S
O236        C243   1.263       .  A
O237        V240   1.890   1_655  S
O237        C242   1.262       .  A
O238        V240   1.896       .  S
O238        C241   1.263       .  A
V239        V240   2.083       .  T
C241       C1510   1.485       .  S
C242       C2117   1.476       .  S
C243       C1986   1.489       .  S
C244       C1529   1.480       .  S
O245        V253   1.908       .  S
O245        C255   1.265       .  A
O246        V253   1.910       .  S
O246        C256   1.265       .  A
O247        V253   1.921       .  S
O247        C257   1.269       .  A
O248        V253   1.917       .  S
O248        C258   1.267       .  A
O249        V254   1.891       .  S
O249        C258   1.262       .  A
O250        V254   1.886       .  S
O250        C257   1.262       .  A
O251        V254   1.894       .  S
O251        C256   1.264       .  A
O252        V254   1.895       .  S
O252        C255   1.264       .  A
V253        V254   2.086       .  T
C255       C2098   1.483       .  S
C256       C1874   1.473       .  S
C257       C1958   1.482       .  S
C258       C1781   1.476       .  S
C259       C1445   1.575       .  S
C259       C1482   1.577       .  S
C259       C1538   1.577       .  S
C259       C1641   1.583       .  S
C260       C1389   1.574       .  S
C260       C1417   1.588       .  S
C260       C1594   1.566       .  S
C260       C1706   1.588       .  S
C261       C1333   1.588       .  S
C261       C1361   1.577       .  S
C261       C1622   1.589       .  S
C261       C1678   1.576       .  S
C262       C1277   1.579       .  S
C262       C1314   1.571       .  S
C262       C1501   1.593       .  S
C262       C1566   1.585       .  S
O263        V271   1.890       .  S
O263        C273   1.262       .  A
O264        V271   1.890       .  S
O264        C274   1.262       .  A
O265        V271   1.898       .  S
O265        C275   1.265       .  A
O266        V271   1.903       .  S
O266        C276   1.267       .  A
O267        V272   1.907       .  S
O267        C276   1.265       .  A
O268        V272   1.907       .  S
O268        C275   1.265       .  A
O269        V272   1.923       .  S
O269        C274   1.268       .  A
O270        V272   1.915       .  S
O270        C273   1.267       .  A
V271        V272   2.086       .  T
C273       C1286   1.482       .  S
C274       C1342   1.481       .  S
C275       C1398   1.482       .  S
C276       C1454   1.489       .  S
C277       C1258   1.581       .  S
C277       C1305   1.579       .  S
C277       C2714   1.571       .  S
C277       C3610   1.593       .  S
C278       C1221   1.585       .  S
C278       C2042   1.583       .  S
C278       C2929   1.582       .  S
C278       C3825   1.588       .  S
C279       C1193   1.585       .  S
C279       C1426   1.589       .  S
C279       C2490   1.583       .  S
C279       C3946   1.588       .  S
C280       C1165   1.593       .  S
C280       C1473   1.586       .  S
C280       C2826   1.591       .  S
C280       C3498   1.591       .  S
C281       C1137   1.587       .  S
C281       C2154   1.585       .  S
C281       C3050   1.591       .  S
C281       C3386   1.588       .  S
C282       C1109   1.590       .  S
C282       C1930   1.580       .  S
C282       C2602   1.589       .  S
C282       C3722   1.567       .  S
C283       C1081   1.611       .  S
C283       C1370   1.611       .  S
C283       C2378   1.578       .  S
C283       C3153   1.588       .  S
C284       C1006   1.577       .  S
C284       C1025   1.579       .  S
C284       C1053   1.575       .  S
C284       C1249   1.577       .  S
C285        C922   1.577       .  S
C285        C941   1.584       .  S
C285        C978   1.590       .  S
C285       C1174   1.580       .  S
C286        C829   1.574       .  S
C286        C866   1.579       .  S
C286        C885   1.577       .  S
C286       C1230   1.573       .  S
C287        C754   1.573       .  S
C287        C773   1.586       .  S
C287        C810   1.576       .  S
C287       C1202   1.587       .  S
C288        C661   1.577       .  S
C288        C689   1.588       .  S
C288        C717   1.583       .  S
C288       C1118   1.578       .  S
O289        V297   1.909   1_545  S
O289        C299   1.266       .  A
O290        V297   1.903   1_655  S
O290        C300   1.266       .  A
O291        V297   1.911       .  S
O291        C301   1.267       .  A
O292        V297   1.908   1_645  S
O292        C302   1.267       .  A
O293        V298   1.893   1_645  S
O293        C302   1.263       .  A
O294        V298   1.897       .  S
O294        C301   1.264       .  A
O295        V298   1.898   1_655  S
O295        C300   1.265       .  A
O296        V298   1.897   1_545  S
O296        C299   1.265       .  A
V297        V298   2.082       .  T
C299       C1034   1.483       .  S
C300        C670   1.484       .  S
C301        C782   1.483       .  S
C302        C857   1.483       .  S
C303        C586   1.582       .  S
C303        C605   1.590       .  S
C303        C642   1.592       .  S
C303       C1090   1.578       .  S
O304        V312   1.903   1_556  S
O304        C314   1.266       .  A
O305        V312   1.896   1_545  S
O305        C315   1.264       .  A
O306        V312   1.902   1_546  S
O306        C316   1.265       .  A
O307        V312   1.894       .  S
O307        C317   1.263       .  A
O308        V313   1.912   1_554  S
O308        C317   1.266       .  A
O309        V313   1.914   1_545  S
O309        C316   1.268       .  A
O310        V313   1.904   1_544  S
O310        C315   1.265       .  A
O311        V313   1.901       .  S
O311        C314   1.265       .  A
V312        V313   2.086   1_554  T
C314        C577   1.491       .  S
C315        C997   1.477       .  S
C316        C913   1.491       .  S
C317        C745   1.479       .  S
C318        C493   1.585       .  S
C318        C521   1.582       .  S
C318        C549   1.591       .  S
C318       C1146   1.576       .  S
O319        V327   1.902   1_655  S
O319        C329   1.265       .  A
O320        V327   1.898   1_554  S
O320        C330   1.264       .  A
O321        V327   1.892   1_654  S
O321        C331   1.263       .  A
O322        V327   1.901       .  S
O322        C332   1.264       .  A
O323        V328   1.915       .  S
O323        C332   1.266       .  A
O324        V328   1.919   1_654  S
O324        C331   1.269       .  A
O325        V328   1.911   1_554  S
O325        C330   1.265       .  A
O326        V328   1.906   1_655  S
O326        C329   1.265       .  A
V327        V328   2.086       .  T
C329        C502   1.478       .  S
C330       C1062   1.477       .  S
C331        C838   1.496       .  S
C332        C950   1.481       .  S
C333        C390   1.582       .  S
C333        C409   1.591       .  S
C333        C437   1.593       .  S
C333        C465   1.575       .  S
O334        V342   1.896   1_654  S
O334        C344   1.263       .  A
O335        V342   1.895       .  S
O335        C345   1.264       .  A
O336        V342   1.904   1_655  S
O336        C346   1.266       .  A
O337        V342   1.904   1_554  S
O337        C347   1.267       .  A
O338        V343   1.909   1_554  S
O338        C347   1.266       .  A
O339        V343   1.910   1_655  S
O339        C346   1.265       .  A
O340        V343   1.924       .  S
O340        C345   1.270       .  A
O341        V343   1.921   1_654  S
O341        C344   1.269       .  A
V342        V343   2.081       .  T
C344        C726   1.481       .  S
C345        C633   1.495       .  S
C346        C418   1.479       .  S
C347        C801   1.487       .  S
O348        V356   1.893       .  S
O348        C358   1.261       .  A
O349        V356   1.897   1_546  S
O349        C359   1.265       .  A
O350        V356   1.899   1_545  S
O350        C360   1.265       .  A
O351        V356   1.904   1_556  S
O351        C361   1.266       .  A
O352        V357   1.911       .  S
O352        C361   1.267       .  A
O353        V357   1.913   1_544  S
O353        C360   1.265       .  A
O354        V357   1.913   1_545  S
O354        C359   1.267       .  A
O355        V357   1.919   1_554  S
O355        C358   1.270       .  A
V356        V357   2.084   1_554  T
C358        C698   1.495       .  S
C359        C530   1.494       .  S
C360        C894   1.482       .  S
C361        C381   1.490       .  S
O362        V370   1.892   1_545  S
O362        C372   1.263       .  A
O363        V370   1.890   1_655  S
O363        C373   1.263       .  A
O364        V370   1.893       .  S
O364        C374   1.263       .  A
O365        V370   1.896   1_645  S
O365        C375   1.264       .  A
O366        V371   1.914   1_645  S
O366        C375   1.268       .  A
O367        V371   1.914       .  S
O367        C374   1.266       .  A
O368        V371   1.919   1_655  S
O368        C373   1.269       .  A
O369        V371   1.923   1_545  S
O369        C372   1.270       .  A
V370        V371   2.082       .  T
C372        C969   1.495       .  S
C373        C446   1.496       .  S
C374        C614   1.476       .  S
C375        C558   1.485       .  S
C376        C474   1.590       .  S
C376       C1809   1.575       .  S
C376       C2266   1.581       .  S
C376       C3274   1.604       .  S
C377        C378   1.402       .  A
C377        C382   1.404       .  A
C377        H387   1.084       .  S
C378        C383   1.487       .  S
C378        C379   1.408       .  A
C379        C380   1.406       .  A
C379        N384   1.428       .  S
C380        C381   1.408       .  A
C380        H385   1.084       .  S
C381        C382   1.415       .  A
C382        N386   1.431       .  S
C383        C388   1.401       .  A
C383        C392   1.394       .  A
N384        O399   1.262       .  A
N384        O400   1.262       .  A
N386        O397   1.262       .  A
N386        O398   1.262       .  A
C388        C389   1.403       .  A
C388        N393   1.430       .  S
C389        C390   1.422       .  A
C389        H394   1.073       .  S
C390        C391   1.439       .  A
C391        C392   1.406       .  A
C391        N395   1.432       .  S
C392        H396   1.084       .  S
N393        O403   1.262       .  A
N393        O404   1.262       .  A
N395        O401   1.263       .  A
N395        O402   1.260       .  A
C405        C406   1.405       .  A
C405        C410   1.418       .  A
C405        H415   1.084       .  S
C406        C411   1.496       .  S
C406        C407   1.401       .  A
C407        C408   1.391       .  A
C407        N412   1.432       .  S
C408        C409   1.424       .  A
C408        H413   1.082       .  S
C409        C410   1.439       .  A
C410        N414   1.431       .  S
C411        C416   1.414       .  A
C411        C420   1.407       .  A
N412        O427   1.262       .  A
N412        O428   1.262       .  A
N414        O425   1.260       .  A
N414        O426   1.263       .  A
C416        C417   1.409       .  A
C416        N421   1.431       .  S
C417        C418   1.404       .  A
C417        H422   1.084       .  S
C418        C419   1.407       .  A
C419        C420   1.401       .  A
C419        N423   1.429       .  S
C420        H424   1.084       .  S
N421        O431   1.262       .  A
N421        O432   1.262       .  A
N423        O429   1.262   1_655  A
N423        O430   1.262       .  A
C433        C434   1.400       .  A
C433        C438   1.409       .  A
C433        H443   1.083       .  S
C434        C439   1.495       .  S
C434        C435   1.407       .  A
C435        C436   1.401       .  A
C435        N440   1.434       .  S
C436        C437   1.422       .  A
C436        H441   1.081       .  S
C437        C438   1.428       .  A
C438        N442   1.425       .  S
C439        C444   1.414       .  A
C439        C448   1.402       .  A
N440        O455   1.263       .  A
N440        O456   1.262       .  A
N442        O453   1.262       .  A
N442        O454   1.263       .  A
C444        C445   1.412       .  A
C444        N449   1.432       .  S
C445        C446   1.409       .  A
C445        H450   1.083       .  S
C446        C447   1.417       .  A
C447        C448   1.396       .  A
C447        N451   1.429       .  S
C448        H452   1.084       .  S
N449        O459   1.262       .  A
N449        O460   1.262       .  A
N451        O457   1.262       .  A
N451        O458   1.262       .  A
C461        C462   1.408       .  A
C461        C466   1.410       .  A
C461        H471   1.081       .  S
C462        C467   1.530       .  S
C462        C463   1.422       .  A
C463        C464   1.411       .  A
C463        N468   1.435       .  S
C464        C465   1.414       .  A
C464        H469   1.083       .  S
C465        C466   1.439       .  A
C466        N470   1.437       .  S
C467        C472   1.421       .  A
C467        C476   1.408       .  A
N468        O483   1.263       .  A
N468        O484   1.262       .  A
N470        O481   1.262       .  A
N470        O482   1.259       .  A
C472        C473   1.408       .  A
C472        N477   1.434       .  S
C473        C474   1.418       .  A
C473        H478   1.084       .  S
C474        C475   1.438       .  A
C475        C476   1.412       .  A
C475        N479   1.431       .  S
C476        H480   1.080       .  S
N477        O487   1.263       .  A
N477        O488   1.262       .  A
N479        O485   1.263       .  A
N479        O486   1.261       .  A
C489        C490   1.399       .  A
C489        C494   1.410       .  A
C489        H499   1.084       .  S
C490        C495   1.488       .  S
C490        C491   1.406       .  A
C491        C492   1.403       .  A
C491        N496   1.432       .  S
C492        C493   1.421       .  A
C492        H497   1.081       .  S
C493        C494   1.430       .  A
C494        N498   1.429       .  S
C495        C500   1.413       .  A
C495        C504   1.403       .  A
N496        O511   1.262       .  A
N496        O512   1.262       .  A
N498        O509   1.262       .  A
N498        O510   1.262       .  A
C500        C501   1.410       .  A
C500        N505   1.432       .  S
C501        C502   1.406       .  A
C501        H506   1.084       .  S
C502        C503   1.407       .  A
C503        C504   1.397       .  A
C503        N507   1.430       .  S
C504        H508   1.080       .  S
N505        O515   1.262       .  A
N505        O516   1.262       .  A
N507        O513   1.262       .  A
N507        O514   1.262       .  A
C517        C518   1.394       .  A
C517        C522   1.404       .  A
C517        H527   1.085       .  S
C518        C523   1.488       .  S
C518        C519   1.399       .  A
C519        C520   1.402       .  A
C519        N524   1.429       .  S
C520        C521   1.422       .  A
C520        H525   1.076       .  S
C521        C522   1.442       .  A
C522        N526   1.427       .  S
C523        C528   1.410       .  A
C523        C532   1.403       .  A
N524        O539   1.262       .  A
N524        O540   1.262       .  A
N526        O537   1.261       .  A
N526        O538   1.262       .  A
C528        C529   1.400       .  A
C528        N533   1.432       .  S
C529        C530   1.407       .  A
C529        H534   1.083       .  S
C530        C531   1.417       .  A
C531        C532   1.408       .  A
C531        N535   1.428       .  S
C532        H536   1.084       .  S
N533        O543   1.262       .  A
N533        O544   1.262       .  A
N535        O541   1.262       .  A
N535        O542   1.262       .  A
C545        C546   1.403       .  A
C545        C550   1.416       .  A
C545        H555   1.084       .  S
C546        C551   1.494       .  S
C546        C547   1.405       .  A
C547        C548   1.394       .  A
C547        N552   1.439       .  S
C548        C549   1.419       .  A
C548        H553   1.073       .  S
C549        C550   1.437       .  A
C550        N554   1.432       .  S
C551        C556   1.417       .  A
C551        C560   1.405       .  A
N552        O567   1.263       .  A
N552        O568   1.263       .  A
N554        O565   1.261       .  A
N554        O566   1.263       .  A
C556        C557   1.404       .  A
C556        N561   1.438       .  S
C557        C558   1.404       .  A
C557        H562   1.084       .  S
C558        C559   1.411       .  A
C559        C560   1.406       .  A
C559        N563   1.430       .  S
C560        H564   1.084       .  S
N561        O571   1.262       .  A
N561        O572   1.263       .  A
N563        O569   1.262       .  A
N563        O570   1.262       .  A
C573        C574   1.402       .  A
C573        C578   1.400       .  A
C573        H583   1.084       .  S
C574        C579   1.481       .  S
C574        C575   1.407       .  A
C575        C576   1.405       .  A
C575        N580   1.431       .  S
C576        C577   1.410       .  A
C576        H581   1.083       .  S
C577        C578   1.415       .  A
C578        N582   1.429       .  S
C579        C584   1.399       .  A
C579        C588   1.388       .  A
N580        O595   1.262       .  A
N580        O596   1.262       .  A
N582        O593   1.262       .  A
N582        O594   1.262       .  A
C584        C585   1.404       .  A
C584        N589   1.428       .  S
C585        C586   1.424       .  A
C585        H590   1.078       .  S
C586        C587   1.438       .  A
C587        C588   1.399       .  A
C587        N591   1.421       .  S
C588        H592   1.085       .  S
N589        O599   1.262       .  A
N589        O600   1.262       .  A
N591        O597   1.262       .  A
N591        O598   1.261       .  A
C601        C602   1.402       .  A
C601        C606   1.414       .  A
C601        H611   1.082       .  S
C602        C607   1.502       .  S
C602        C603   1.413       .  A
C603        C604   1.403       .  A
C603        N608   1.435       .  S
C604        C605   1.419       .  A
C604        H609   1.079       .  S
C605        C606   1.432       .  A
C606        N610   1.430       .  S
C607        C612   1.419       .  A
C607        C616   1.410       .  A
N608        O623   1.262       .  A
N608        O624   1.263       .  A
N610        O621   1.262       .  A
N610        O622   1.262       .  A
C612        C613   1.400       .  A
C612        N617   1.429       .  S
C613        C614   1.396       .  A
C613        H618   1.085       .  S
C614        C615   1.410       .  A
C615        C616   1.409       .  A
C615        N619   1.431       .  S
C616        H620   1.084       .  S
N617        O627   1.262       .  A
N617        O628   1.263       .  A
N619        O625   1.262       .  A
N619        O626   1.262       .  A
C629        C630   1.404       .  A
C629        C634   1.400       .  A
C629        H639   1.084       .  S
C630        C635   1.499       .  S
C630        C631   1.413       .  A
C631        C632   1.412       .  A
C631        N636   1.429       .  S
C632        C633   1.408       .  A
C632        H637   1.083       .  S
C633        C634   1.415       .  A
C634        N638   1.431       .  S
C635        C640   1.405       .  A
C635        C644   1.404       .  A
N636        O651   1.262       .  A
N636        O652   1.262       .  A
N638        O649   1.262       .  A
N638        O650   1.262       .  A
C640        C641   1.396       .  A
C640        N645   1.436       .  S
C641        C642   1.421       .  A
C641        H646   1.078       .  S
C642        C643   1.437       .  A
C643        C644   1.417       .  A
C643        N647   1.432       .  S
C644        H648   1.084       .  S
N645        O655   1.262       .  A
N645        O656   1.263       .  A
N647        O653   1.262       .  A
N647        O654   1.262       .  A
C657        C658   1.395       .  A
C657        C662   1.405       .  A
C657        H667   1.084       .  S
C658        C663   1.481       .  S
C658        C659   1.400       .  A
C659        C660   1.400       .  A
C659        N664   1.433       .  S
C660        C661   1.423       .  A
C660        H665   1.068       .  S
C661        C662   1.440       .  A
C662        N666   1.435       .  S
C663        C668   1.408       .  A
C663        C672   1.401       .  A
N664        O679   1.262       .  A
N664        O680   1.262       .  A
N666        O677   1.263       .  A
N666        O678   1.260       .  A
C668        C669   1.404       .  A
C668        N673   1.430       .  S
C669        C670   1.407       .  A
C669        H674   1.084       .  S
C670        C671   1.413       .  A
C671        C672   1.399       .  A
C671        N675   1.429       .  S
C672        H676   1.084       .  S
N673        O683   1.262       .  A
N673        O684   1.262       .  A
N675        O681   1.262       .  A
N675        O682   1.262       .  A
C685        C686   1.400       .  A
C685        C690   1.411       .  A
C685        H695   1.083       .  S
C686        C691   1.485       .  S
C686        C687   1.402       .  A
C687        C688   1.400       .  A
C687        N692   1.429       .  S
C688        C689   1.422       .  A
C688        H693   1.081       .  S
C689        C690   1.429       .  A
C690        N694   1.432       .  S
C691        C696   1.409       .  A
C691        C700   1.399       .  A
N692        O707   1.262       .  A
N692        O708   1.262       .  A
N694        O705   1.263       .  A
N694        O706   1.262       .  A
C696        C697   1.410       .  A
C696        N701   1.431       .  S
C697        C698   1.410       .  A
C697        H702   1.083       .  S
C698        C699   1.421       .  A
C699        C700   1.400       .  A
C699        N703   1.433       .  S
C700        H704   1.085       .  S
N701        O711   1.262       .  A
N701        O712   1.262       .  A
N703        O709   1.262       .  A
N703        O710   1.262       .  A
C713        C714   1.395       .  A
C713        C718   1.397       .  A
C713        H723   1.085       .  S
C714        C719   1.496       .  S
C714        C715   1.408       .  A
C715        C716   1.413       .  A
C715        N720   1.428       .  S
C716        C717   1.421       .  A
C716        H721   1.079       .  S
C717        C718   1.437       .  A
C718        N722   1.433       .  S
C719        C724   1.414       .  A
C719        C728   1.408       .  A
N720        O735   1.262       .  A
N720        O736   1.262       .  A
N722        O733   1.261       .  A
N722        O734   1.262       .  A
C724        C725   1.403       .  A
C724        N729   1.433       .  S
C725        C726   1.401       .  A
C725        H730   1.084       .  S
C726        C727   1.411       .  A
C727        C728   1.410       .  A
C727        N731   1.429       .  S
C728        H732   1.083       .  S
N729        O739   1.262       .  A
N729        O740   1.262       .  A
N731        O737   1.262       .  A
N731        O738   1.262       .  A
C741        C742   1.402       .  A
C741        C746   1.398       .  A
C741        H751   1.084       .  S
C742        C747   1.484       .  S
C742        C743   1.413       .  A
C743        C744   1.408       .  A
C743        N748   1.431       .  S
C744        C745   1.405       .  A
C744        H749   1.084       .  S
C745        C746   1.410       .  A
C746        N750   1.430       .  S
C747        C752   1.404       .  A
C747        C756   1.388       .  A
N748        O763   1.262       .  A
N748        O764   1.262       .  A
N750        O761   1.262       .  A
N750        O762   1.262       .  A
C752        C753   1.410       .  A
C752        N757   1.428       .  S
C753        C754   1.418       .  A
C753        H758   1.077       .  S
C754        C755   1.440       .  A
C755        C756   1.393       .  A
C755        N759   1.431       .  S
C756        H760   1.085       .  S
N757        O767   1.262       .  A
N757        O768   1.262       .  A
N759        O765   1.260       .  A
N759        O766   1.262       .  A
C769        C770   1.396       .  A
C769        C774   1.404       .  A
C769        H779   1.084       .  S
C770        C775   1.486       .  S
C770        C771   1.405       .  A
C771        C772   1.404       .  A
C771        N776   1.434       .  S
C772        C773   1.424       .  A
C772        H777   1.073       .  S
C773        C774   1.434       .  A
C774        N778   1.432       .  S
C775        C780   1.411       .  A
C775        C784   1.402       .  A
N776        O791   1.263       .  A
N776        O792   1.262       .  A
N778        O789   1.262       .  A
N778        O790   1.262       .  A
C780        C781   1.407       .  A
C780        N785   1.430       .  S
C781        C782   1.406       .  A
C781        H786   1.084       .  S
C782        C783   1.411       .  A
C783        C784   1.399       .  A
C783        N787   1.429       .  S
C784        H788   1.084       .  S
N785        O795   1.262       .  A
N785        O796   1.262       .  A
N787        O793   1.262       .  A
N787        O794   1.262       .  A
C797        C798   1.404       .  A
C797        C802   1.408       .  A
C797        H807   1.084       .  S
C798        C803   1.489       .  S
C798        C799   1.412       .  A
C799        C800   1.401       .  A
C799        N804   1.428       .  S
C800        C801   1.403       .  A
C800        H805   1.084       .  S
C801        C802   1.415       .  A
C802        N806   1.430       .  S
C803        C808   1.406       .  A
C803        C812   1.395       .  A
N804        O819   1.260       .  A
N804        O820   1.261       .  A
N806        O817   1.262       .  A
N806        O818   1.262       .  A
C808        C809   1.409       .  A
C808        N813   1.431       .  S
C809        C810   1.417       .  A
C809        H814   1.082       .  S
C810        C811   1.442       .  A
C811        C812   1.403       .  A
C811        N815   1.438       .  S
C812        H816   1.084       .  S
N813        O823   1.262       .  A
N813        O824   1.262       .  A
N815        O821   1.259       .  A
N815        O822   1.262       .  A
C825        C826   1.400       .  A
C825        C830   1.410       .  A
C825        H835   1.083       .  S
C826        C831   1.484       .  S
C826        C827   1.402       .  A
C827        C828   1.397       .  A
C827        N832   1.429       .  S
C828        C829   1.417       .  A
C828        H833   1.081       .  S
C829        C830   1.430       .  A
C830        N834   1.431       .  S
C831        C836   1.406       .  A
C831        C840   1.399       .  A
N832        O847   1.262       .  A
N832        O848   1.262       .  A
N834        O845   1.262       .  A
N834        O846   1.262       .  A
C836        C837   1.410       .  A
C836        N841   1.428       .  S
C837        C838   1.412       .  A
C837        H842   1.083       .  S
C838        C839   1.418       .  A
C839        C840   1.396       .  A
C839        N843   1.429       .  S
C840        H844   1.084       .  S
N841        O851   1.262       .  A
N841        O852   1.262       .  A
N843        O849   1.262       .  A
N843        O850   1.262       .  A
C853        C854   1.400       .  A
C853        C858   1.399       .  A
C853        H863   1.084       .  S
C854        C859   1.478       .  S
C854        C855   1.406       .  A
C855        C856   1.403       .  A
C855        N860   1.428       .  S
C856        C857   1.406       .  A
C856        H861   1.084       .  S
C857        C858   1.415       .  A
C858        N862   1.431       .  S
C859        C864   1.398       .  A
C859        C868   1.394       .  A
N860        O875   1.262       .  A
N860        O876   1.262       .  A
N862        O873   1.262       .  A
N862        O874   1.262       .  A
C864        C865   1.398       .  A
C864        N869   1.430       .  S
C865        C866   1.422       .  A
C865        H870   1.074       .  S
C866        C867   1.437       .  A
C867        C868   1.404       .  A
C867        N871   1.433       .  S
C868        H872   1.084       .  S
N869        O879   1.262       .  A
N869        O880   1.261       .  A
N871        O877   1.262       .  A
N871        O878   1.262       .  A
C881        C882   1.391       .  A
C881        C886   1.392       .  A
C881        H891   1.085       .  S
C882        C887   1.486       .  S
C882        C883   1.405       .  A
C883        C884   1.412       .  A
C883        N888   1.428       .  S
C884        C885   1.421       .  A
C884        H889   1.079       .  S
C885        C886   1.437       .  A
C886        N890   1.432       .  S
C887        C892   1.411       .  A
C887        C896   1.402       .  A
N888        O903   1.262       .  A
N888        O904   1.262       .  A
N890        O901   1.261       .  A
N890        O902   1.263       .  A
C892        C893   1.411       .  A
C892        N897   1.429       .  S
C893        C894   1.407       .  A
C893        H898   1.084       .  S
C894        C895   1.408       .  A
C895        C896   1.397       .  A
C895        N899   1.428       .  S
C896        H900   1.084       .  S
N897        O907   1.262       .  A
N897        O908   1.262       .  A
N899        O905   1.262       .  A
N899        O906   1.261       .  A
C909        C910   1.401       .  A
C909        C914   1.402       .  A
C909        H919   1.084       .  S
C910        C915   1.487       .  S
C910        C911   1.409       .  A
C911        C912   1.407       .  A
C911        N916   1.428       .  S
C912        C913   1.408       .  A
C912        H917   1.084       .  S
C913        C914   1.415       .  A
C914        N918   1.429       .  S
C915        C920   1.401       .  A
C915        C924   1.396       .  A
N916        O931   1.262       .  A
N916        O932   1.262       .  A
N918        O929   1.262       .  A
N918        O930   1.262       .  A
C920        C921   1.402       .  A
C920        N925   1.431       .  S
C921        C922   1.421       .  A
C921        H926   1.071       .  S
C922        C923   1.440       .  A
C923        C924   1.407       .  A
C923        N927   1.436       .  S
C924        H928   1.084       .  S
N925        O935   1.262       .  A
N925        O936   1.262       .  A
N927        O933   1.263       .  A
N927        O934   1.260       .  A
C937        C938   1.390       .  A
C937        C942   1.396       .  A
C937        H947   1.085       .  S
C938        C943   1.486       .  S
C938        C939   1.406       .  A
C939        C940   1.411       .  A
C939        N944   1.428       .  S
C940        C941   1.422       .  A
C940        H945   1.078       .  S
C941        C942   1.438       .  A
C942        N946   1.432       .  S
C943        C948   1.411       .  A
C943        C952   1.403       .  A
N944        O959   1.262       .  A
N944        O960   1.262       .  A
N946        O957   1.262       .  A
N946        O958   1.261       .  A
C948        C949   1.409       .  A
C948        N953   1.429       .  S
C949        C950   1.405       .  A
C949        H954   1.084       .  S
C950        C951   1.408       .  A
C951        C952   1.401       .  A
C951        N955   1.428       .  S
C952        H956   1.084       .  S
N953        O963   1.262       .  A
N953        O964   1.262       .  A
N955        O961   1.262       .  A
N955        O962   1.261       .  A
C965        C966   1.403       .  A
C965        C970   1.397       .  A
C965        H975   1.083       .  S
C966        C971   1.498       .  S
C966        C967   1.415       .  A
C967        C968   1.414       .  A
C967        N972   1.430       .  S
C968        C969   1.409       .  A
C968        H973   1.083       .  S
C969        C970   1.415       .  A
C970        N974   1.430       .  S
C971        C976   1.407       .  A
C971        C980   1.401       .  A
N972        O987   1.262       .  A
N972        O988   1.262       .  A
N974        O985   1.262       .  A
N974        O986   1.262       .  A
C976        C977   1.402       .  A
C976        N981   1.433       .  S
C977        C978   1.421       .  A
C977        H982   1.081       .  S
C978        C979   1.430       .  A
C979        C980   1.412       .  A
C979        N983   1.428       .  S
C980        H984   1.083       .  S
N981        O991   1.262       .  A
N981        O992   1.262       .  A
N983        O989   1.263       .  A
N983        O990   1.262       .  A
C993        C994   1.405       .  A
C993        C998   1.405       .  A
C993       H1003   1.084       .  S
C994        C999   1.483       .  S
C994        C995   1.413       .  A
C995        C996   1.398       .  A
C995       N1000   1.431       .  S
C996        C997   1.401       .  A
C996       H1001   1.083       .  S
C997        C998   1.411       .  A
C998       N1002   1.431       .  S
C999       C1004   1.407       .  A
C999       C1008   1.394       .  A
N1000      O1015   1.260       .  A
N1000      O1016   1.262       .  A
N1002      O1013   1.262       .  A
N1002      O1014   1.262       .  A
C1004      C1005   1.407       .  A
C1004      N1009   1.433       .  S
C1005      C1006   1.414       .  A
C1005      H1010   1.077       .  S
C1006      C1007   1.435       .  A
C1007      C1008   1.398       .  A
C1007      N1011   1.434       .  S
C1008      H1012   1.084       .  S
N1009      O1019   1.262       .  A
N1009      O1020   1.263       .  A
N1011      O1017   1.261       .  A
N1011      O1018   1.262       .  A
C1021      C1022   1.397       .  A
C1021      C1026   1.408       .  A
C1021      H1031   1.084       .  S
C1022      C1027   1.482       .  S
C1022      C1023   1.402       .  A
C1023      C1024   1.398       .  A
C1023      N1028   1.436       .  S
C1024      C1025   1.422       .  A
C1024      H1029   1.068       .  S
C1025      C1026   1.438       .  A
C1026      N1030   1.436       .  S
C1027      C1032   1.410       .  A
C1027      C1036   1.400       .  A
N1028      O1043   1.263       .  A
N1028      O1044   1.262       .  A
N1030      O1041   1.263       .  A
N1030      O1042   1.261       .  A
C1032      C1033   1.406       .  A
C1032      N1037   1.429       .  S
C1033      C1034   1.406       .  A
C1033      H1038   1.084       .  S
C1034      C1035   1.414       .  A
C1035      C1036   1.399       .  A
C1035      N1039   1.431       .  S
C1036      H1040   1.084       .  S
N1037      O1047   1.262       .  A
N1037      O1048   1.262       .  A
N1039      O1045   1.262       .  A
N1039      O1046   1.262       .  A
C1049      C1050   1.389       .  A
C1049      C1054   1.392       .  A
C1049      H1059   1.085       .  S
C1050      C1055   1.486       .  S
C1050      C1051   1.406       .  A
C1051      C1052   1.412       .  A
C1051      N1056   1.428       .  S
C1052      C1053   1.421       .  A
C1052      H1057   1.078       .  S
C1053      C1054   1.436       .  A
C1054      N1058   1.429       .  S
C1055      C1060   1.414       .  A
C1055      C1064   1.403       .  A
N1056      O1071   1.262       .  A
N1056      O1072   1.262       .  A
N1058      O1069   1.262       .  A
N1058      O1070   1.261       .  A
C1060      C1061   1.409       .  A
C1060      N1065   1.430       .  S
C1061      C1062   1.403       .  A
C1061      H1066   1.083       .  S
C1062      C1063   1.407       .  A
C1063      C1064   1.397       .  A
C1063      N1067   1.429       .  S
C1064      H1068   1.084       .  S
N1065      O1075   1.262       .  A
N1065      O1076   1.262       .  A
N1067      O1073   1.262       .  A
N1067      O1074   1.262       .  A
C1077      C1078   1.401       .  A
C1077      C1082   1.409       .  A
C1077      H1087   1.085       .  S
C1078      C1083   1.519       .  S
C1078      C1079   1.413       .  A
C1079      C1080   1.413       .  A
C1079      N1084   1.437       .  S
C1080      C1081   1.425       .  A
C1080      H1085   1.074       .  S
C1081      C1082   1.441       .  A
C1082      N1086   1.429       .  S
C1083      C1088   1.418       .  A
C1083      C1092   1.404       .  A
N1084      O1099   1.262       .  A
N1084      O1100   1.263       .  A
N1086      O1097   1.262       .  A
N1086      O1098   1.261       .  A
C1088      C1089   1.415       .  A
C1088      N1093   1.437       .  S
C1089      C1090   1.419       .  A
C1089      H1094   1.083       .  S
C1090      C1091   1.437       .  A
C1091      C1092   1.408       .  A
C1091      N1095   1.432       .  S
C1092      H1096   1.084       .  S
N1093      O1103   1.262       .  A
N1093      O1104   1.263       .  A
N1095      O1101   1.263       .  A
N1095      O1102   1.261       .  A
C1105      C1106   1.400       .  A
C1105      C1110   1.409       .  A
C1105      H1115   1.084       .  S
C1106      C1111   1.502       .  S
C1106      C1107   1.405       .  A
C1107      C1108   1.407       .  A
C1107      N1112   1.429       .  S
C1108      C1109   1.423       .  A
C1108      H1113   1.076       .  S
C1109      C1110   1.437       .  A
C1110      N1114   1.432       .  S
C1111      C1116   1.407       .  A
C1111      C1120   1.399       .  A
N1112      O1127   1.262       .  A
N1112      O1128   1.262       .  A
N1114      O1125   1.262       .  A
N1114      O1126   1.262       .  A
C1116      C1117   1.407       .  A
C1116      N1121   1.432       .  S
C1117      C1118   1.419       .  A
C1117      H1122   1.083       .  S
C1118      C1119   1.442       .  A
C1119      C1120   1.411       .  A
C1119      N1123   1.435       .  S
C1120      H1124   1.084       .  S
N1121      O1131   1.262       .  A
N1121      O1132   1.262       .  A
N1123      O1129   1.263       .  A
N1123      O1130   1.261       .  A
C1133      C1134   1.407       .  A
C1133      C1138   1.412       .  A
C1133      H1143   1.082       .  S
C1134      C1139   1.526       .  S
C1134      C1135   1.420       .  A
C1135      C1136   1.408       .  A
C1135      N1140   1.435       .  S
C1136      C1137   1.414       .  A
C1136      H1141   1.077       .  S
C1137      C1138   1.438       .  A
C1138      N1142   1.433       .  S
C1139      C1144   1.420       .  A
C1139      C1148   1.407       .  A
N1140      O1155   1.263       .  A
N1140      O1156   1.262       .  A
N1142      O1153   1.263       .  A
N1142      O1154   1.261       .  A
C1144      C1145   1.410       .  A
C1144      N1149   1.434       .  S
C1145      C1146   1.416       .  A
C1145      H1150   1.083       .  S
C1146      C1147   1.436       .  A
C1147      C1148   1.409       .  A
C1147      N1151   1.432       .  S
C1148      H1152   1.081       .  S
N1149      O1159   1.263       .  A
N1149      O1160   1.262       .  A
N1151      O1157   1.260       .  A
N1151      O1158   1.263       .  A
C1161      C1162   1.396       .  A
C1161      C1166   1.410       .  A
C1161      H1171   1.084       .  S
C1162      C1167   1.500       .  S
C1162      C1163   1.407       .  A
C1163      C1164   1.409       .  A
C1163      N1168   1.435       .  S
C1164      C1165   1.418       .  A
C1164      H1169   1.071       .  S
C1165      C1166   1.440       .  A
C1166      N1170   1.429       .  S
C1167      C1172   1.407       .  A
C1167      C1176   1.399       .  A
N1168      O1183   1.262       .  A
N1168      O1184   1.262       .  A
N1170      O1181   1.261       .  A
N1170      O1182   1.261       .  A
C1172      C1173   1.408       .  A
C1172      N1177   1.432       .  S
C1173      C1174   1.419       .  A
C1173      H1178   1.083       .  S
C1174      C1175   1.443       .  A
C1175      C1176   1.411       .  A
C1175      N1179   1.436       .  S
C1176      H1180   1.084       .  S
N1177      O1187   1.262       .  A
N1177      O1188   1.262       .  A
N1179      O1185   1.260       .  A
N1179      O1186   1.263       .  A
C1189      C1190   1.409       .  A
C1189      C1194   1.415       .  A
C1189      H1199   1.082       .  S
C1190      C1195   1.521       .  S
C1190      C1191   1.418       .  A
C1191      C1192   1.405       .  A
C1191      N1196   1.435       .  S
C1192      C1193   1.417       .  A
C1192      H1197   1.074       .  S
C1193      C1194   1.433       .  A
C1194      N1198   1.433       .  S
C1195      C1200   1.416       .  A
C1195      C1204   1.403       .  A
N1196      O1211   1.263       .  A
N1196      O1212   1.262       .  A
N1198      O1209   1.262       .  A
N1198      O1210   1.261       .  A
C1200      C1201   1.413       .  A
C1200      N1205   1.430       .  S
C1201      C1202   1.422       .  A
C1201      H1206   1.081       .  S
C1202      C1203   1.425       .  A
C1203      C1204   1.405       .  A
C1203      N1207   1.424       .  S
C1204      H1208   1.081       .  S
N1205      O1215   1.262       .  A
N1205      O1216   1.261       .  A
N1207      O1213   1.262       .  A
N1207      O1214   1.262       .  A
C1217      C1218   1.399       .  A
C1217      C1222   1.405       .  A
C1217      H1227   1.084       .  S
C1218      C1223   1.495       .  S
C1218      C1219   1.410       .  A
C1219      C1220   1.406       .  A
C1219      N1224   1.437       .  S
C1220      C1221   1.421       .  A
C1220      H1225   1.076       .  S
C1221      C1222   1.434       .  A
C1222      N1226   1.433       .  S
C1223      C1228   1.411       .  A
C1223      C1232   1.400       .  A
N1224      O1239   1.262       .  A
N1224      O1240   1.263       .  A
N1226      O1237   1.262       .  A
N1226      O1238   1.262       .  A
C1228      C1229   1.407       .  A
C1228      N1233   1.437       .  S
C1229      C1230   1.421       .  A
C1229      H1234   1.079       .  S
C1230      C1231   1.429       .  A
C1231      C1232   1.404       .  A
C1231      N1235   1.430       .  S
C1232      H1236   1.084       .  S
N1233      O1243   1.262       .  A
N1233      O1244   1.263       .  A
N1235      O1241   1.262       .  A
N1235      O1242   1.262       .  A
C1245      C1246   1.397       .  A
C1245      C1250   1.407       .  A
C1245      H1255   1.084       .  S
C1246      C1251   1.490       .  S
C1246      C1247   1.402       .  A
C1247      C1248   1.401       .  A
C1247      N1252   1.430       .  S
C1248      C1249   1.414       .  A
C1248      H1253   1.071       .  S
C1249      C1250   1.441       .  A
C1250      N1254   1.433       .  S
C1251      C1256   1.402       .  A
C1251      C1260   1.399       .  A
N1252      O1267   1.262       .  A
N1252      O1268   1.262       .  A
N1254      O1265   1.262       .  A
N1254      O1266   1.261       .  A
C1256      C1257   1.401       .  A
C1256      N1261   1.429       .  S
C1257      C1258   1.421       .  A
C1257      H1262   1.078       .  S
C1258      C1259   1.434       .  A
C1259      C1260   1.406       .  A
C1259      N1263   1.432       .  S
C1260      H1264   1.084       .  S
N1261      O1271   1.262       .  A
N1261      O1272   1.261       .  A
N1263      O1269   1.262       .  A
N1263      O1270   1.262       .  A
C1273      C1274   1.395       .  A
C1273      C1278   1.403       .  A
C1273      H1283   1.084       .  S
C1274      C1279   1.481       .  S
C1274      C1275   1.401       .  A
C1275      C1276   1.400       .  A
C1275      N1280   1.432       .  S
C1276      C1277   1.422       .  A
C1276      H1281   1.073       .  S
C1277      C1278   1.437       .  A
C1278      N1282   1.431       .  S
C1279      C1284   1.410       .  A
C1279      C1288   1.398       .  A
N1280      O1295   1.262       .  A
N1280      O1296   1.262       .  A
N1282      O1293   1.262       .  A
N1282      O1294   1.261       .  A
C1284      C1285   1.408       .  A
C1284      N1289   1.429       .  S
C1285      C1286   1.406       .  A
C1285      H1290   1.084       .  S
C1286      C1287   1.413       .  A
C1287      C1288   1.397       .  A
C1287      N1291   1.430       .  S
C1288      H1292   1.084       .  S
N1289      O1299   1.262       .  A
N1289      O1300   1.262       .  A
N1291      O1297   1.262       .  A
N1291      O1298   1.262       .  A
C1301      C1302   1.397       .  A
C1301      C1306   1.403       .  A
C1301      H1311   1.085       .  S
C1302      C1307   1.496       .  S
C1302      C1303   1.409       .  A
C1303      C1304   1.408       .  A
C1303      N1308   1.435       .  S
C1304      C1305   1.422       .  A
C1304      H1309   1.083       .  S
C1305      C1306   1.440       .  A
C1306      N1310   1.434       .  S
C1307      C1312   1.408       .  A
C1307      C1316   1.398       .  A
N1308      O1323   1.262       .  A
N1308      O1324   1.263       .  A
N1310      O1321   1.263       .  A
N1310      O1322   1.260       .  A
C1312      C1313   1.408       .  A
C1312      N1317   1.435       .  S
C1313      C1314   1.421       .  A
C1313      H1318   1.083       .  S
C1314      C1315   1.442       .  A
C1315      C1316   1.404       .  A
C1315      N1319   1.438       .  S
C1316      H1320   1.084       .  S
N1317      O1327   1.262       .  A
N1317      O1328   1.262       .  A
N1319      O1325   1.260       .  A
N1319      O1326   1.263       .  A
C1329      C1330   1.391       .  A
C1329      C1334   1.395       .  A
C1329      H1339   1.085       .  S
C1330      C1335   1.486       .  S
C1330      C1331   1.404       .  A
C1331      C1332   1.410       .  A
C1331      N1336   1.428       .  S
C1332      C1333   1.422       .  A
C1332      H1337   1.078       .  S
C1333      C1334   1.436       .  A
C1334      N1338   1.430       .  S
C1335      C1340   1.415       .  A
C1335      C1344   1.400       .  A
N1336      O1351   1.262       .  A
N1336      O1352   1.262       .  A
N1338      O1349   1.261       .  A
N1338      O1350   1.261       .  A
C1340      C1341   1.412       .  A
C1340      N1345   1.431       .  S
C1341      C1342   1.404       .  A
C1341      H1346   1.084       .  S
C1342      C1343   1.410       .  A
C1343      C1344   1.397       .  A
C1343      N1347   1.428       .  S
C1344      H1348   1.084       .  S
N1345      O1355   1.262       .  A
N1345      O1356   1.262       .  A
N1347      O1353   1.262       .  A
N1347      O1354   1.261       .  A
C1357      C1358   1.408       .  A
C1357      C1362   1.413       .  A
C1357      H1367   1.082       .  S
C1358      C1363   1.521       .  S
C1358      C1359   1.418       .  A
C1359      C1360   1.405       .  A
C1359      N1364   1.436       .  S
C1360      C1361   1.413       .  A
C1360      H1365   1.083       .  S
C1361      C1362   1.439       .  A
C1362      N1366   1.435       .  S
C1363      C1368   1.414       .  A
C1363      C1372   1.402       .  A
N1364      O1379   1.263       .  A
N1364      O1380   1.263       .  A
N1366      O1377   1.260       .  A
N1366      O1378   1.262       .  A
C1368      C1369   1.412       .  A
C1368      N1373   1.434       .  S
C1369      C1370   1.426       .  A
C1369      H1374   1.082       .  S
C1370      C1371   1.442       .  A
C1371      C1372   1.409       .  A
C1371      N1375   1.435       .  S
C1372      H1376   1.080       .  S
N1373      O1383   1.262       .  A
N1373      O1384   1.262       .  A
N1375      O1381   1.261       .  A
N1375      O1382   1.263       .  A
C1385      C1386   1.392       .  A
C1385      C1390   1.400       .  A
C1385      H1395   1.084       .  S
C1386      C1391   1.481       .  S
C1386      C1387   1.403       .  A
C1387      C1388   1.405       .  A
C1387      N1392   1.428       .  S
C1388      C1389   1.418       .  A
C1388      H1393   1.084       .  S
C1389      C1390   1.444       .  A
C1390      N1394   1.439       .  S
C1391      C1396   1.410       .  A
C1391      C1400   1.403       .  A
N1392      O1407   1.261       .  A
N1392      O1408   1.262       .  A
N1394      O1405   1.263       .  A
N1394      O1406   1.259       .  A
C1396      C1397   1.398       .  A
C1396      N1401   1.429       .  S
C1397      C1398   1.402       .  A
C1397      H1402   1.083       .  S
C1398      C1399   1.413       .  A
C1399      C1400   1.406       .  A
C1399      N1403   1.429       .  S
C1400      H1404   1.084       .  S
N1401      O1411   1.261       .  A
N1401      O1412   1.261       .  A
N1403      O1409   1.262       .  A
N1403      O1410   1.262       .  A
C1413      C1414   1.395       .  A
C1413      C1418   1.407       .  A
C1413      H1423   1.084       .  S
C1414      C1419   1.491       .  S
C1414      C1415   1.400       .  A
C1415      C1416   1.403       .  A
C1415      N1420   1.429       .  S
C1416      C1417   1.426       .  A
C1416      H1421   1.078       .  S
C1417      C1418   1.432       .  A
C1418      N1422   1.423       .  S
C1419      C1424   1.403       .  A
C1419      C1428   1.395       .  A
N1420      O1435   1.262       .  A
N1420      O1436   1.262       .  A
N1422      O1433   1.262       .  A
N1422      O1434   1.263       .  A
C1424      C1425   1.403       .  A
C1424      N1429   1.431       .  S
C1425      C1426   1.420       .  A
C1425      H1430   1.078       .  S
C1426      C1427   1.439       .  A
C1427      C1428   1.408       .  A
C1427      N1431   1.430       .  S
C1428      H1432   1.084       .  S
N1429      O1439   1.262       .  A
N1429      O1440   1.262       .  A
N1431      O1437   1.262       .  A
N1431      O1438   1.262       .  A
C1441      C1442   1.399       .  A
C1441      C1446   1.408       .  A
C1441      H1451   1.084       .  S
C1442      C1447   1.485       .  S
C1442      C1443   1.404       .  A
C1443      C1444   1.402       .  A
C1443      N1448   1.430       .  S
C1444      C1445   1.418       .  A
C1444      H1449   1.081       .  S
C1445      C1446   1.430       .  A
C1446      N1450   1.431       .  S
C1447      C1452   1.408       .  A
C1447      C1456   1.402       .  A
N1448      O1463   1.262       .  A
N1448      O1464   1.262       .  A
N1450      O1461   1.262       .  A
N1450      O1462   1.262       .  A
C1452      C1453   1.400       .  A
C1452      N1457   1.428       .  S
C1453      C1454   1.404       .  A
C1453      H1458   1.084       .  S
C1454      C1455   1.417       .  A
C1455      C1456   1.408       .  A
C1455      N1459   1.428       .  S
C1456      H1460   1.084       .  S
N1457      O1467   1.261       .  A
N1457      O1468   1.261       .  A
N1459      O1465   1.262       .  A
N1459      O1466   1.262       .  A
C1469      C1470   1.402       .  A
C1469      C1474   1.412       .  A
C1469      H1479   1.083       .  S
C1470      C1475   1.505       .  S
C1470      C1471   1.406       .  A
C1471      C1472   1.406       .  A
C1471      N1476   1.431       .  S
C1472      C1473   1.417       .  A
C1472      H1477   1.074       .  S
C1473      C1474   1.440       .  A
C1474      N1478   1.435       .  S
C1475      C1480   1.411       .  A
C1475      C1484   1.403       .  A
N1476      O1491   1.262       .  A
N1476      O1492   1.262       .  A
N1478      O1489   1.261       .  A
N1478      O1490   1.262       .  A
C1480      C1481   1.408       .  A
C1480      N1485   1.434       .  S
C1481      C1482   1.419       .  A
C1481      H1486   1.078       .  S
C1482      C1483   1.431       .  A
C1483      C1484   1.408       .  A
C1483      N1487   1.431       .  S
C1484      H1488   1.083       .  S
N1485      O1495   1.262       .  A
N1485      O1496   1.262       .  A
N1487      O1493   1.262       .  A
N1487      O1494   1.262       .  A
C1497      C1498   1.397       .  A
C1497      C1502   1.409       .  A
C1497      H1507   1.084       .  S
C1498      C1503   1.484       .  S
C1498      C1499   1.404       .  A
C1499      C1500   1.401       .  A
C1499      N1504   1.433       .  S
C1500      C1501   1.423       .  A
C1500      H1505   1.080       .  S
C1501      C1502   1.433       .  A
C1502      N1506   1.429       .  S
C1503      C1508   1.411       .  A
C1503      C1512   1.400       .  A
N1504      O1519   1.262       .  A
N1504      O1520   1.262       .  A
N1506      O1517   1.262       .  A
N1506      O1518   1.263       .  A
C1508      C1509   1.408       .  A
C1508      N1513   1.431       .  S
C1509      C1510   1.406       .  A
C1509      H1514   1.084       .  S
C1510      C1511   1.413       .  A
C1511      C1512   1.399       .  A
C1511      N1515   1.429       .  S
C1512      H1516   1.084       .  S
N1513      O1523   1.262       .  A
N1513      O1524   1.262       .  A
N1515      O1521   1.261       .  A
N1515      O1522   1.262       .  A
C1525      C1526   1.407       .  A
C1525      C1530   1.410       .  A
C1525      H1535   1.084       .  S
C1526      C1531   1.489       .  S
C1526      C1527   1.411       .  A
C1527      C1528   1.398       .  A
C1527      N1532   1.432       .  S
C1528      C1529   1.401       .  A
C1528      H1533   1.084       .  S
C1529      C1530   1.411       .  A
C1530      N1534   1.429       .  S
C1531      C1536   1.404       .  A
C1531      C1540   1.393       .  A
N1532      O1547   1.262       .  A
N1532      O1548   1.262       .  A
N1534      O1545   1.262       .  A
N1534      O1546   1.261       .  A
C1536      C1537   1.411       .  A
C1536      N1541   1.429       .  S
C1537      C1538   1.422       .  A
C1537      H1542   1.079       .  S
C1538      C1539   1.436       .  A
C1539      C1540   1.395       .  A
C1539      N1543   1.431       .  S
C1540      H1544   1.085       .  S
N1541      O1551   1.262       .  A
N1541      O1552   1.262       .  A
N1543      O1549   1.262       .  A
N1543      O1550   1.261       .  A
C1553      C1554   1.404       .  A
C1553      C1558   1.406       .  A
C1553      H1563   1.084       .  S
C1554      C1559   1.491       .  S
C1554      C1555   1.415       .  A
C1555      C1556   1.406       .  A
C1555      N1560   1.436       .  S
C1556      C1557   1.404       .  A
C1556      H1561   1.084       .  S
C1557      C1558   1.409       .  A
C1558      N1562   1.428       .  S
C1559      C1564   1.404       .  A
C1559      C1568   1.401       .  A
N1560      O1575   1.262       .  A
N1560      O1576   1.262       .  A
N1562      O1573   1.262       .  A
N1562      O1574   1.262       .  A
C1564      C1565   1.397       .  A
C1564      N1569   1.435       .  S
C1565      C1566   1.423       .  A
C1565      H1570   1.083       .  S
C1566      C1567   1.437       .  A
C1567      C1568   1.413       .  A
C1567      N1571   1.431       .  S
C1568      H1572   1.084       .  S
N1569      O1579   1.262       .  A
N1569      O1580   1.263       .  A
N1571      O1577   1.263       .  A
N1571      O1578   1.261       .  A
C1581      C1582   1.403       .  A
C1581      C1586   1.398       .  A
C1581      H1591   1.084       .  S
C1582      C1587   1.486       .  S
C1582      C1583   1.412       .  A
C1583      C1584   1.409       .  A
C1583      N1588   1.430       .  S
C1584      C1585   1.405       .  A
C1584      H1589   1.084       .  S
C1585      C1586   1.407       .  A
C1586      N1590   1.429       .  S
C1587      C1592   1.409       .  A
C1587      C1596   1.389       .  A
N1588      O1603   1.262       .  A
N1588      O1604   1.262       .  A
N1590      O1601   1.262       .  A
N1590      O1602   1.262       .  A
C1592      C1593   1.413       .  A
C1592      N1597   1.431       .  S
C1593      C1594   1.418       .  A
C1593      H1598   1.078       .  S
C1594      C1595   1.438       .  A
C1595      C1596   1.390       .  A
C1595      N1599   1.432       .  S
C1596      H1600   1.085       .  S
N1597      O1607   1.262       .  A
N1597      O1608   1.262       .  A
N1599      O1605   1.261       .  A
N1599      O1606   1.260       .  A
C1609      C1610   1.403       .  A
C1609      C1614   1.399       .  A
C1609      H1619   1.083       .  S
C1610      C1615   1.493       .  S
C1610      C1611   1.411       .  A
C1611      C1612   1.409       .  A
C1611      N1616   1.430       .  S
C1612      C1613   1.411       .  A
C1612      H1617   1.083       .  S
C1613      C1614   1.415       .  A
C1614      N1618   1.429       .  S
C1615      C1620   1.406       .  A
C1615      C1624   1.400       .  A
N1616      O1631   1.262       .  A
N1616      O1632   1.262       .  A
N1618      O1629   1.262       .  A
N1618      O1630   1.262       .  A
C1620      C1621   1.401       .  A
C1620      N1625   1.433       .  S
C1621      C1622   1.421       .  A
C1621      H1626   1.081       .  S
C1622      C1623   1.428       .  A
C1623      C1624   1.410       .  A
C1623      N1627   1.427       .  S
C1624      H1628   1.083       .  S
N1625      O1635   1.262       .  A
N1625      O1636   1.262       .  A
N1627      O1633   1.263       .  A
N1627      O1634   1.262       .  A
C1637      C1638   1.399       .  A
C1637      C1642   1.407       .  A
C1637      H1647   1.084       .  S
C1638      C1643   1.488       .  S
C1638      C1639   1.401       .  A
C1639      C1640   1.396       .  A
C1639      N1644   1.432       .  S
C1640      C1641   1.422       .  A
C1640      H1645   1.074       .  S
C1641      C1642   1.435       .  A
C1642      N1646   1.432       .  S
C1643      C1648   1.410       .  A
C1643      C1652   1.408       .  A
N1644      O1659   1.262       .  A
N1644      O1660   1.262       .  A
N1646      O1657   1.262       .  A
N1646      O1658   1.262       .  A
C1648      C1649   1.398       .  A
C1648      N1653   1.429       .  S
C1649      C1650   1.402       .  A
C1649      H1654   1.084       .  S
C1650      C1651   1.407       .  A
C1651      C1652   1.404       .  A
C1651      N1655   1.429       .  S
C1652      H1656   1.084       .  S
N1653      O1663   1.262       .  A
N1653      O1664   1.262       .  A
N1655      O1661   1.262       .  A
N1655      O1662   1.262       .  A
C1665      C1666   1.401       .  A
C1665      C1670   1.400       .  A
C1665      H1675   1.082       .  S
C1666      C1671   1.485       .  S
C1666      C1667   1.407       .  A
C1667      C1668   1.407       .  A
C1667      N1672   1.428       .  S
C1668      C1669   1.409       .  A
C1668      H1673   1.083       .  S
C1669      C1670   1.415       .  A
C1670      N1674   1.432       .  S
C1671      C1676   1.399       .  A
C1671      C1680   1.396       .  A
N1672      O1687   1.262       .  A
N1672      O1688   1.262       .  A
N1674      O1685   1.262       .  A
N1674      O1686   1.262       .  A
C1676      C1677   1.400       .  A
C1676      N1681   1.430       .  S
C1677      C1678   1.422       .  A
C1677      H1682   1.070       .  S
C1678      C1679   1.439       .  A
C1679      C1680   1.408       .  A
C1679      N1683   1.437       .  S
C1680      H1684   1.084       .  S
N1681      O1691   1.262       .  A
N1681      O1692   1.261       .  A
N1683      O1689   1.263       .  A
N1683      O1690   1.261       .  A
C1693      C1694   1.396       .  A
C1693      C1698   1.395       .  A
C1693      H1703   1.082       .  S
C1694      C1699   1.479       .  S
C1694      C1695   1.406       .  A
C1695      C1696   1.407       .  A
C1695      N1700   1.428       .  S
C1696      C1697   1.410       .  A
C1696      H1701   1.083       .  S
C1697      C1698   1.420       .  A
C1698      N1702   1.432       .  S
C1699      C1704   1.401       .  A
C1699      C1708   1.394       .  A
N1700      O1715   1.262       .  A
N1700      O1716   1.262       .  A
N1702      O1713   1.262       .  A
N1702      O1714   1.262       .  A
C1704      C1705   1.400       .  A
C1704      N1709   1.432       .  S
C1705      C1706   1.424       .  A
C1705      H1710   1.072       .  S
C1706      C1707   1.438       .  A
C1707      C1708   1.404       .  A
C1707      N1711   1.433       .  S
C1708      H1712   1.084       .  S
N1709      O1719   1.262       .  A
N1709      O1720   1.262       .  A
N1711      O1717   1.262       .  A
N1711      O1718   1.261       .  A
C1721      C1722   1.405       .  A
C1721      C1726   1.407       .  A
C1721      H1731   1.084       .  S
C1722      C1727   1.487       .  S
C1722      C1723   1.413       .  A
C1723      C1724   1.399       .  A
C1723      N1728   1.431       .  S
C1724      C1725   1.402       .  A
C1724      H1729   1.084       .  S
C1725      C1726   1.410       .  A
C1726      N1730   1.428       .  S
C1727      C1732   1.405       .  A
C1727      C1736   1.396       .  A
N1728      O1743   1.260       .  A
N1728      O1744   1.262       .  A
N1730      O1741   1.262       .  A
N1730      O1742   1.262       .  A
C1732      C1733   1.405       .  A
C1732      N1737   1.432       .  S
C1733      C1734   1.413       .  A
C1733      H1738   1.071       .  S
C1734      C1735   1.434       .  A
C1735      C1736   1.406       .  A
C1735      N1739   1.432       .  S
C1736      H1740   1.084       .  S
N1737      O1747   1.262       .  A
N1737      O1748   1.262       .  A
N1739      O1745   1.261       .  A
N1739      O1746   1.262       .  A
C1749      C1750   1.397       .  A
C1749      C1754   1.393       .  A
C1749      H1759   1.085       .  S
C1750      C1755   1.476       .  S
C1750      C1751   1.409       .  A
C1751      C1752   1.407       .  A
C1751      N1756   1.428       .  S
C1752      C1753   1.406       .  A
C1752      H1757   1.084       .  S
C1753      C1754   1.412       .  A
C1754      N1758   1.429       .  S
C1755      C1760   1.399       .  A
C1755      C1764   1.395       .  A
N1756      O1771   1.262       .  A
N1756      O1772   1.262       .  A
N1758      O1769   1.262       .  A
N1758      O1770   1.261       .  A
C1760      C1761   1.396       .  A
C1760      N1765   1.431       .  S
C1761      C1762   1.421       .  A
C1761      H1766   1.073       .  S
C1762      C1763   1.435       .  A
C1763      C1764   1.405       .  A
C1763      N1767   1.433       .  S
C1764      H1768   1.084       .  S
N1765      O1775   1.262       .  A
N1765      O1776   1.262       .  A
N1767      O1773   1.262       .  A
N1767      O1774   1.261       .  A
C1777      C1778   1.402       .  A
C1777      C1782   1.398       .  A
C1777      H1787   1.084       .  S
C1778      C1783   1.487       .  S
C1778      C1779   1.414       .  A
C1779      C1780   1.409       .  A
C1779      N1784   1.431       .  S
C1780      C1781   1.403       .  A
C1780      H1785   1.084       .  S
C1781      C1782   1.409       .  A
C1782      N1786   1.430       .  S
C1783      C1788   1.403       .  A
C1783      C1792   1.391       .  A
N1784      O1799   1.262       .  A
N1784      O1800   1.262       .  A
N1786      O1797   1.261       .  A
N1786      O1798   1.262       .  A
C1788      C1789   1.409       .  A
C1788      N1793   1.430       .  S
C1789      C1790   1.423       .  A
C1789      H1794   1.076       .  S
C1790      C1791   1.436       .  A
C1791      C1792   1.397       .  A
C1791      N1795   1.428       .  S
C1792      H1796   1.085       .  S
N1793      O1803   1.262       .  A
N1793      O1804   1.262       .  A
N1795      O1801   1.261       .  A
N1795      O1802   1.262       .  A
C1805      C1806   1.402       .  A
C1805      C1810   1.408       .  A
C1805      H1815   1.081       .  S
C1806      C1811   1.509       .  S
C1806      C1807   1.414       .  A
C1807      C1808   1.406       .  A
C1807      N1812   1.435       .  S
C1808      C1809   1.418       .  A
C1808      H1813   1.083       .  S
C1809      C1810   1.441       .  A
C1810      N1814   1.437       .  S
C1811      C1816   1.415       .  A
C1811      C1820   1.401       .  A
N1812      O1827   1.262       .  A
N1812      O1828   1.262       .  A
N1814      O1825   1.263       .  A
N1814      O1826   1.261       .  A
C1816      C1817   1.406       .  A
C1816      N1821   1.434       .  S
C1817      C1818   1.412       .  A
C1817      H1822   1.073       .  S
C1818      C1819   1.439       .  A
C1819      C1820   1.405       .  A
C1819      N1823   1.433       .  S
C1820      H1824   1.084       .  S
N1821      O1831   1.263       .  A
N1821      O1832   1.262       .  A
N1823      O1829   1.262       .  A
N1823      O1830   1.262       .  A
C1833      C1834   1.393       .  A
C1833      C1838   1.388       .  A
C1833      H1843   1.085       .  S
C1834      C1839   1.485       .  S
C1834      C1835   1.410       .  A
C1835      C1836   1.410       .  A
C1835      N1840   1.435       .  S
C1836      C1837   1.418       .  A
C1836      H1841   1.078       .  S
C1837      C1838   1.436       .  A
C1838      N1842   1.434       .  S
C1839      C1844   1.414       .  A
C1839      C1848   1.403       .  A
N1840      O1855   1.262       .  A
N1840      O1856   1.262       .  A
N1842      O1853   1.261       .  A
N1842      O1854   1.260       .  A
C1844      C1845   1.408       .  A
C1844      N1849   1.432       .  S
C1845      C1846   1.404       .  A
C1845      H1850   1.083       .  S
C1846      C1847   1.407       .  A
C1847      C1848   1.395       .  A
C1847      N1851   1.429       .  S
C1848      H1852   1.084       .  S
N1849      O1859   1.262       .  A
N1849      O1860   1.262       .  A
N1851      O1857   1.262       .  A
N1851      O1858   1.262   1_655  A
C1861      C1862   1.391       .  A
C1861      C1866   1.399       .  A
C1861      H1871   1.084       .  S
C1862      C1867   1.491       .  S
C1862      C1863   1.408       .  A
C1863      C1864   1.413       .  A
C1863      N1868   1.434       .  S
C1864      C1865   1.419       .  A
C1864      H1869   1.083       .  S
C1865      C1866   1.450       .  A
C1866      N1870   1.443       .  S
C1867      C1872   1.416       .  A
C1867      C1876   1.410       .  A
N1868      O1883   1.262       .  A
N1868      O1884   1.262       .  A
N1870      O1881   1.263       .  A
N1870      O1882   1.258       .  A
C1872      C1873   1.400       .  A
C1872      N1877   1.431       .  S
C1873      C1874   1.398       .  A
C1873      H1878   1.085       .  S
C1874      C1875   1.406       .  A
C1875      C1876   1.407       .  A
C1875      N1879   1.428       .  S
C1876      H1880   1.084       .  S
N1877      O1887   1.263       .  A
N1877      O1888   1.261       .  A
N1879      O1885   1.262       .  A
N1879      O1886   1.262       .  A
C1889      C1890   1.400       .  A
C1889      C1894   1.409       .  A
C1889      H1899   1.084       .  S
C1890      C1895   1.497       .  S
C1890      C1891   1.407       .  A
C1891      C1892   1.406       .  A
C1891      N1896   1.437       .  S
C1892      C1893   1.426       .  A
C1892      H1897   1.083       .  S
C1893      C1894   1.432       .  A
C1894      N1898   1.421       .  S
C1895      C1900   1.414       .  A
C1895      C1904   1.409       .  A
N1896      O1911   1.262       .  A
N1896      O1912   1.263       .  A
N1898      O1909   1.260       .  A
N1898      O1910   1.262       .  A
C1900      C1901   1.399       .  A
C1900      N1905   1.430       .  S
C1901      C1902   1.402       .  A
C1901      H1906   1.083       .  S
C1902      C1903   1.409       .  A
C1903      C1904   1.410       .  A
C1903      N1907   1.428       .  S
C1904      H1908   1.084       .  S
N1905      O1915   1.261       .  A
N1905      O1916   1.262       .  A
N1907      O1913   1.262       .  A
N1907      O1914   1.262       .  A
C1917      C1918   1.398       .  A
C1917      C1922   1.407       .  A
C1917      H1927   1.084       .  S
C1918      C1923   1.501       .  S
C1918      C1919   1.408       .  A
C1919      C1920   1.405       .  A
C1919      N1924   1.433       .  S
C1920      C1921   1.424       .  A
C1920      H1925   1.079       .  S
C1921      C1922   1.432       .  A
C1922      N1926   1.424       .  S
C1923      C1928   1.409       .  A
C1923      C1932   1.398       .  A
N1924      O1939   1.262       .  A
N1924      O1940   1.262       .  A
N1926      O1937   1.263       .  A
N1926      O1938   1.262       .  A
C1928      C1929   1.405       .  A
C1928      N1933   1.431       .  S
C1929      C1930   1.419       .  A
C1929      H1934   1.084       .  S
C1930      C1931   1.444       .  A
C1931      C1932   1.406       .  A
C1931      N1935   1.437       .  S
C1932      H1936   1.084       .  S
N1933      O1943   1.262       .  A
N1933      O1944   1.262       .  A
N1935      O1941   1.263       .  A
N1935      O1942   1.260       .  A
C1945      C1946   1.395       .  A
C1945      C1950   1.404       .  A
C1945      H1955   1.084       .  S
C1946      C1951   1.487       .  S
C1946      C1947   1.403       .  A
C1947      C1948   1.403       .  A
C1947      N1952   1.432       .  S
C1948      C1949   1.421       .  A
C1948      H1953   1.073       .  S
C1949      C1950   1.438       .  A
C1950      N1954   1.435       .  S
C1951      C1956   1.409       .  A
C1951      C1960   1.406       .  A
N1952      O1967   1.262       .  A
N1952      O1968   1.262       .  A
N1954      O1965   1.261       .  A
N1954      O1966   1.263       .  A
C1956      C1957   1.399       .  A
C1956      N1961   1.431       .  S
C1957      C1958   1.405       .  A
C1957      H1962   1.084       .  S
C1958      C1959   1.411       .  A
C1959      C1960   1.407       .  A
C1959      N1963   1.429       .  S
C1960      H1964   1.084       .  S
N1961      O1971   1.262       .  A
N1961      O1972   1.262       .  A
N1963      O1969   1.262       .  A
N1963      O1970   1.262       .  A
C1973      C1974   1.395       .  A
C1973      C1978   1.406       .  A
C1973      H1983   1.084       .  S
C1974      C1979   1.486       .  S
C1974      C1975   1.404       .  A
C1975      C1976   1.405       .  A
C1975      N1980   1.428       .  S
C1976      C1977   1.413       .  A
C1976      H1981   1.074       .  S
C1977      C1978   1.439       .  A
C1978      N1982   1.433       .  S
C1979      C1984   1.410       .  A
C1979      C1988   1.400       .  A
N1980      O1995   1.262       .  A
N1980      O1996   1.261       .  A
N1982      O1993   1.262       .  A
N1982      O1994   1.261       .  A
C1984      C1985   1.410       .  A
C1984      N1989   1.429       .  S
C1985      C1986   1.408       .  A
C1985      H1990   1.083       .  S
C1986      C1987   1.415       .  A
C1987      C1988   1.399       .  A
C1987      N1991   1.429       .  S
C1988      H1992   1.084       .  S
N1989      O1999   1.262       .  A
N1989      O2000   1.262       .  A
N1991      O1997   1.261       .  A
N1991      O1998   1.262       .  A
C2001      C2002   1.393       .  A
C2001      C2006   1.394       .  A
C2001      H2011   1.084       .  S
C2002      C2007   1.497       .  S
C2002      C2003   1.410       .  A
C2003      C2004   1.414       .  A
C2003      N2008   1.430       .  S
C2004      C2005   1.420       .  A
C2004      H2009   1.078       .  S
C2005      C2006   1.438       .  A
C2006      N2010   1.433       .  S
C2007      C2012   1.415       .  A
C2007      C2016   1.405       .  A
N2008      O2023   1.262       .  A
N2008      O2024   1.262       .  A
N2010      O2021   1.261       .  A
N2010      O2022   1.262       .  A
C2012      C2013   1.401       .  A
C2012      N2017   1.435       .  S
C2013      C2014   1.403       .  A
C2013      H2018   1.084       .  S
C2014      C2015   1.419       .  A
C2015      C2016   1.411       .  A
C2015      N2019   1.433       .  S
C2016      H2020   1.083       .  S
N2017      O2027   1.262       .  A
N2017      O2028   1.262       .  A
N2019      O2025   1.262       .  A
N2019      O2026   1.262       .  A
C2029      C2030   1.400       .  A
C2029      C2034   1.406       .  A
C2029      H2039   1.083       .  S
C2030      C2035   1.509       .  S
C2030      C2031   1.411       .  A
C2031      C2032   1.409       .  A
C2031      N2036   1.432       .  S
C2032      C2033   1.415       .  A
C2032      H2037   1.073       .  S
C2033      C2034   1.442       .  A
C2034      N2038   1.433       .  S
C2035      C2040   1.414       .  A
C2035      C2044   1.404       .  A
N2036      O2051   1.262       .  A
N2036      O2052   1.262       .  A
N2038      O2049   1.261       .  A
N2038      O2050   1.262       .  A
C2040      C2041   1.406       .  A
C2040      N2045   1.435       .  S
C2041      C2042   1.417       .  A
C2041      H2046   1.077       .  S
C2042      C2043   1.433       .  A
C2043      C2044   1.410       .  A
C2043      N2047   1.432       .  S
C2044      H2048   1.083       .  S
N2045      O2055   1.262       .  A
N2045      O2056   1.263       .  A
N2047      O2053   1.262       .  A
N2047      O2054   1.262       .  A
C2057      C2058   1.405       .  A
C2057      C2062   1.408       .  A
C2057      H2067   1.084       .  S
C2058      C2063   1.485       .  S
C2058      C2059   1.408       .  A
C2059      C2060   1.398       .  A
C2059      N2064   1.429       .  S
C2060      C2061   1.403       .  A
C2060      H2065   1.082       .  S
C2061      C2062   1.413       .  A
C2062      N2066   1.430       .  S
C2063      C2068   1.404       .  A
C2063      C2072   1.400       .  A
N2064      O2079   1.262       .  A
N2064      O2080   1.261       .  A
N2066      O2077   1.262       .  A
N2066      O2078   1.262       .  A
C2068      C2069   1.401       .  A
C2068      N2073   1.432       .  S
C2069      C2070   1.418       .  A
C2069      H2074   1.080       .  S
C2070      C2071   1.429       .  A
C2071      C2072   1.408       .  A
C2071      N2075   1.431       .  S
C2072      H2076   1.084       .  S
N2073      O2083   1.262       .  A
N2073      O2084   1.262       .  A
N2075      O2081   1.262       .  A
N2075      O2082   1.262       .  A
C2085      C2086   1.394       .  A
C2085      C2090   1.404       .  A
C2085      H2095   1.084       .  S
C2086      C2091   1.480       .  S
C2086      C2087   1.400       .  A
C2087      C2088   1.399       .  A
C2087      N2092   1.432       .  S
C2088      C2089   1.422       .  A
C2088      H2093   1.073       .  S
C2089      C2090   1.438       .  A
C2090      N2094   1.432       .  S
C2091      C2096   1.408       .  A
C2091      C2100   1.403       .  A
N2092      O2107   1.262       .  A
N2092      O2108   1.262       .  A
N2094      O2105   1.262       .  A
N2094      O2106   1.261       .  A
C2096      C2097   1.398       .  A
C2096      N2101   1.431       .  S
C2097      C2098   1.405       .  A
C2097      H2102   1.084       .  S
C2098      C2099   1.415       .  A
C2099      C2100   1.406       .  A
C2099      N2103   1.430       .  S
C2100      H2104   1.084       .  S
N2101      O2111   1.262       .  A
N2101      O2112   1.262       .  A
N2103      O2109   1.262       .  A
N2103      O2110   1.262       .  A
C2113      C2114   1.405       .  A
C2113      C2118   1.408       .  A
C2113      H2123   1.084       .  S
C2114      C2119   1.486       .  S
C2114      C2115   1.411       .  A
C2115      C2116   1.398       .  A
C2115      N2120   1.431       .  S
C2116      C2117   1.400       .  A
C2116      H2121   1.083       .  S
C2117      C2118   1.410       .  A
C2118      N2122   1.429       .  S
C2119      C2124   1.404       .  A
C2119      C2128   1.393       .  A
N2120      O2135   1.262       .  A
N2120      O2136   1.262       .  A
N2122      O2133   1.262       .  A
N2122      O2134   1.262       .  A
C2124      C2125   1.409       .  A
C2124      N2129   1.429       .  S
C2125      C2126   1.422       .  A
C2125      H2130   1.078       .  S
C2126      C2127   1.436       .  A
C2127      C2128   1.395       .  A
C2127      N2131   1.432       .  S
C2128      H2132   1.085       .  S
N2129      O2139   1.262       .  A
N2129      O2140   1.262       .  A
N2131      O2137   1.262       .  A
N2131      O2138   1.261       .  A
C2141      C2142   1.403       .  A
C2141      C2146   1.409       .  A
C2141      H2151   1.084       .  S
C2142      C2147   1.500       .  S
C2142      C2143   1.408       .  A
C2143      C2144   1.403       .  A
C2143      N2148   1.433       .  S
C2144      C2145   1.418       .  A
C2144      H2149   1.078       .  S
C2145      C2146   1.431       .  A
C2146      N2150   1.431       .  S
C2147      C2152   1.403       .  A
C2147      C2156   1.399       .  A
N2148      O2163   1.262       .  A
N2148      O2164   1.262       .  A
N2150      O2161   1.262       .  A
N2150      O2162   1.261       .  A
C2152      C2153   1.405       .  A
C2152      N2157   1.430       .  S
C2153      C2154   1.419       .  A
C2153      H2158   1.074       .  S
C2154      C2155   1.439       .  A
C2155      C2156   1.410       .  A
C2155      N2159   1.432       .  S
C2156      H2160   1.084       .  S
N2157      O2167   1.262       .  A
N2157      O2168   1.262       .  A
N2159      O2165   1.262       .  A
N2159      O2166   1.262       .  A
C2169      C2170   1.400       .  A
C2169      C2174   1.413       .  A
C2169      H2179   1.087       .  S
C2170      C2175   1.486       .  S
C2170      C2171   1.404       .  A
C2171      C2172   1.387       .  A
C2171      N2176   1.437       .  S
C2172      C2173   1.413       .  A
C2172      H2177   1.093       .  S
C2173      C2174   1.439       .  A
C2174      N2178   1.432       .  S
C2175      C2180   1.414       .  A
C2175      C2184   1.404       .  A
N2176      O2191   1.262       .  A
N2176      O2192   1.264       .  A
N2178      O2189   1.261       .  A
N2178      O2190   1.262       .  A
C2180      C2181   1.401       .  A
C2180      N2185   1.438       .  S
C2181      C2182   1.403       .  A
C2181      H2186   1.084       .  S
C2182      C2183   1.410       .  A
C2183      C2184   1.406       .  A
C2183      N2187   1.428       .  S
C2184      H2188   1.084       .  S
N2185      O2195   1.262       .  A
N2185      O2196   1.263       .  A
N2187      O2193   1.262       .  A
N2187      O2194   1.262       .  A
C2197      C2198   1.404       .  A
C2197      C2202   1.412       .  A
C2197      H2207   1.082       .  S
C2198      C2203   1.501       .  S
C2198      C2199   1.410       .  A
C2199      C2200   1.400       .  A
C2199      N2204   1.436       .  S
C2200      C2201   1.417       .  A
C2200      H2205   1.081       .  S
C2201      C2202   1.428       .  A
C2202      N2206   1.431       .  S
C2203      C2208   1.416       .  A
C2203      C2212   1.405       .  A
N2204      O2219   1.263       .  A
N2204      O2220   1.263       .  A
N2206      O2217   1.262       .  A
N2206      O2218   1.262       .  A
C2208      C2209   1.412       .  A
C2208      N2213   1.431       .  S
C2209      C2210   1.408       .  A
C2209      H2214   1.083       .  S
C2210      C2211   1.415       .  A
C2211      C2212   1.395       .  A
C2211      N2215   1.430       .  S
C2212      H2216   1.084       .  S
N2213      O2223   1.262       .  A
N2213      O2224   1.262       .  A
N2215      O2221   1.262       .  A
N2215      O2222   1.262       .  A
C2225      C2226   1.394       .  A
C2225      C2230   1.403       .  A
C2225      H2235   1.085       .  S
C2226      C2231   1.481       .  S
C2226      C2227   1.396       .  A
C2227      C2228   1.397       .  A
C2227      N2232   1.429       .  S
C2228      C2229   1.421       .  A
C2228      H2233   1.076       .  S
C2229      C2230   1.445       .  A
C2230      N2234   1.433       .  S
C2231      C2236   1.408       .  A
C2231      C2240   1.403       .  A
N2232      O2247   1.262       .  A
N2232      O2248   1.262       .  A
N2234      O2245   1.261       .  A
N2234      O2246   1.262       .  A
C2236      C2237   1.395       .  A
C2236      N2241   1.433       .  S
C2237      C2238   1.407       .  A
C2237      H2242   1.084       .  S
C2238      C2239   1.415       .  A
C2239      C2240   1.406       .  A
C2239      N2243   1.428       .  S
C2240      H2244   1.083       .  S
N2241      O2251   1.262       .  A
N2241      O2252   1.262       .  A
N2243      O2249   1.262       .  A
N2243      O2250   1.262       .  A
C2253      C2254   1.397       .  A
C2253      C2258   1.408       .  A
C2253      H2263   1.084       .  S
C2254      C2259   1.492       .  S
C2254      C2255   1.404       .  A
C2255      C2256   1.403       .  A
C2255      N2260   1.432       .  S
C2256      C2257   1.420       .  A
C2256      H2261   1.082       .  S
C2257      C2258   1.440       .  A
C2258      N2262   1.433       .  S
C2259      C2264   1.403       .  A
C2259      C2268   1.395       .  A
N2260      O2275   1.262       .  A
N2260      O2276   1.262       .  A
N2262      O2273   1.261       .  A
N2262      O2274   1.263       .  A
C2264      C2265   1.406       .  A
C2264      N2269   1.429       .  S
C2265      C2266   1.422       .  A
C2265      H2270   1.076       .  S
C2266      C2267   1.438       .  A
C2267      C2268   1.404       .  A
C2267      N2271   1.430       .  S
C2268      H2272   1.084       .  S
N2269      O2279   1.262       .  A
N2269      O2280   1.262       .  A
N2271      O2277   1.262       .  A
N2271      O2278   1.262       .  A
C2281      C2282   1.401       .  A
C2281      C2286   1.400       .  A
C2281      H2291   1.084       .  S
C2282      C2287   1.482       .  S
C2282      C2283   1.408       .  A
C2283      C2284   1.405       .  A
C2283      N2288   1.428       .  S
C2284      C2285   1.407       .  A
C2284      H2289   1.084       .  S
C2285      C2286   1.415       .  A
C2286      N2290   1.429       .  S
C2287      C2292   1.403       .  A
C2287      C2296   1.394       .  A
N2288      O2303   1.262       .  A
N2288      O2304   1.262       .  A
N2290      O2301   1.262       .  A
N2290      O2302   1.262       .  A
C2292      C2293   1.404       .  A
C2292      N2297   1.428       .  S
C2293      C2294   1.415       .  A
C2293      H2298   1.074       .  S
C2294      C2295   1.440       .  A
C2295      C2296   1.403       .  A
C2295      N2299   1.436       .  S
C2296      H2300   1.084       .  S
N2297      O2307   1.262       .  A
N2297      O2308   1.261       .  A
N2299      O2305   1.261       .  A
N2299      O2306   1.262       .  A
C2309      C2310   1.402       .  A
C2309      C2314   1.413       .  A
C2309      H2319   1.084       .  S
C2310      C2315   1.489       .  S
C2310      C2311   1.400       .  A
C2311      C2312   1.389       .  A
C2311      N2316   1.433       .  S
C2312      C2313   1.423       .  A
C2312      H2317   1.082       .  S
C2313      C2314   1.436       .  A
C2314      N2318   1.430       .  S
C2315      C2320   1.411       .  A
C2315      C2324   1.404       .  A
N2316      O2331   1.262       .  A
N2316      O2332   1.262       .  A
N2318      O2329   1.262       .  A
N2318      O2330   1.261       .  A
C2320      C2321   1.407       .  A
C2320      N2325   1.432       .  S
C2321      C2322   1.406       .  A
C2321      H2326   1.084       .  S
C2322      C2323   1.414       .  A
C2323      C2324   1.400       .  A
C2323      N2327   1.437       .  S
C2324      H2328   1.084       .  S
N2325      O2335   1.262       .  A
N2325      O2336   1.262       .  A
N2327      O2333   1.263       .  A
N2327      O2334   1.263       .  A
C2337      C2338   1.400       .  A
C2337      C2342   1.405       .  A
C2337      H2347   1.084       .  S
C2338      C2343   1.484       .  S
C2338      C2339   1.409       .  A
C2339      C2340   1.402       .  A
C2339      N2344   1.431       .  S
C2340      C2341   1.407       .  A
C2340      H2345   1.084       .  S
C2341      C2342   1.416       .  A
C2342      N2346   1.428       .  S
C2343      C2348   1.401       .  A
C2343      C2352   1.395       .  A
N2344      O2359   1.262       .  A
N2344      O2360   1.262       .  A
N2346      O2357   1.262       .  A
N2346      O2358   1.262       .  A
C2348      C2349   1.399       .  A
C2348      N2353   1.432       .  S
C2349      C2350   1.423       .  A
C2349      H2354   1.074       .  S
C2350      C2351   1.437       .  A
C2351      C2352   1.407       .  A
C2351      N2355   1.430       .  S
C2352      H2356   1.084       .  S
N2353      O2363   1.262       .  A
N2353      O2364   1.262       .  A
N2355      O2361   1.261       .  A
N2355      O2362   1.262       .  A
C2365      C2366   1.400       .  A
C2365      C2370   1.414       .  A
C2365      H2375   1.084       .  S
C2366      C2371   1.499       .  S
C2366      C2367   1.403       .  A
C2367      C2368   1.401       .  A
C2367      N2372   1.430       .  S
C2368      C2369   1.413       .  A
C2368      H2373   1.071       .  S
C2369      C2370   1.443       .  A
C2370      N2374   1.437       .  S
C2371      C2376   1.407       .  A
C2371      C2380   1.398       .  A
N2372      O2387   1.262       .  A
N2372      O2388   1.262       .  A
N2374      O2385   1.261       .  A
N2374      O2386   1.262       .  A
C2376      C2377   1.408       .  A
C2376      N2381   1.429       .  S
C2377      C2378   1.423       .  A
C2377      H2382   1.079       .  S
C2378      C2379   1.435       .  A
C2379      C2380   1.405       .  A
C2379      N2383   1.431       .  S
C2380      H2384   1.084       .  S
N2381      O2391   1.262       .  A
N2381      O2392   1.262       .  A
N2383      O2389   1.262       .  A
N2383      O2390   1.262       .  A
C2393      C2394   1.406       .  A
C2393      C2398   1.408       .  A
C2393      H2403   1.083       .  S
C2394      C2399   1.485       .  S
C2394      C2395   1.410       .  A
C2395      C2396   1.395       .  A
C2395      N2400   1.429       .  S
C2396      C2397   1.402       .  A
C2396      H2401   1.084       .  S
C2397      C2398   1.411       .  A
C2398      N2402   1.428       .  S
C2399      C2404   1.403       .  A
C2399      C2408   1.395       .  A
N2400      O2415   1.260       .  A
N2400      O2416   1.261       .  A
N2402      O2413   1.262       .  A
N2402      O2414   1.262       .  A
C2404      C2405   1.403       .  A
C2404      N2409   1.430       .  S
C2405      C2406   1.418       .  A
C2405      H2410   1.081       .  S
C2406      C2407   1.443       .  A
C2407      C2408   1.405       .  A
C2407      N2411   1.438       .  S
C2408      H2412   1.084       .  S
N2409      O2419   1.262       .  A
N2409      O2420   1.262       .  A
N2411      O2417   1.262       .  A
N2411      O2418   1.259       .  A
C2421      C2422   1.402       .  A
C2421      C2426   1.403       .  A
C2421      H2431   1.084       .  S
C2422      C2427   1.491       .  S
C2422      C2423   1.411       .  A
C2423      C2424   1.410       .  A
C2423      N2428   1.429       .  S
C2424      C2425   1.407       .  A
C2424      H2429   1.083       .  S
C2425      C2426   1.412       .  A
C2426      N2430   1.429       .  S
C2427      C2432   1.404       .  A
C2427      C2436   1.397       .  A
N2428      O2443   1.262       .  A
N2428      O2444   1.262       .  A
N2430      O2441   1.262       .  A
N2430      O2442   1.262       .  A
C2432      C2433   1.406       .  A
C2432      N2437   1.432       .  S
C2433      C2434   1.425       .  A
C2433      H2438   1.074       .  S
C2434      C2435   1.434       .  A
C2435      C2436   1.407       .  A
C2435      N2439   1.432       .  S
C2436      H2440   1.084       .  S
N2437      O2447   1.262       .  A
N2437      O2448   1.262       .  A
N2439      O2445   1.262       .  A
N2439      O2446   1.261       .  A
C2449      C2450   1.389       .  A
C2449      C2454   1.397       .  A
C2449      H2459   1.085       .  S
C2450      C2455   1.484       .  S
C2450      C2451   1.404       .  A
C2451      C2452   1.409       .  A
C2451      N2456   1.428       .  S
C2452      C2453   1.418       .  A
C2452      H2457   1.078       .  S
C2453      C2454   1.439       .  A
C2454      N2458   1.431       .  S
C2455      C2460   1.410       .  A
C2455      C2464   1.403       .  A
N2456      O2471   1.262       .  A
N2456      O2472   1.261       .  A
N2458      O2469   1.260       .  A
N2458      O2470   1.262       .  A
C2460      C2461   1.406       .  A
C2460      N2465   1.429       .  S
C2461      C2462   1.405       .  A
C2461      H2466   1.084       .  S
C2462      C2463   1.411       .  A
C2463      C2464   1.402       .  A
C2463      N2467   1.430       .  S
C2464      H2468   1.084       .  S
N2465      O2475   1.262       .  A
N2465      O2476   1.261       .  A
N2467      O2473   1.262       .  A
N2467      O2474   1.262       .  A
C2477      C2478   1.403       .  A
C2477      C2482   1.405       .  A
C2477      H2487   1.082       .  S
C2478      C2483   1.520       .  S
C2478      C2479   1.416       .  A
C2479      C2480   1.414       .  A
C2479      N2484   1.433       .  S
C2480      C2481   1.424       .  A
C2480      H2485   1.081       .  S
C2481      C2482   1.427       .  A
C2482      N2486   1.424       .  S
C2483      C2488   1.418       .  A
C2483      C2492   1.409       .  A
N2484      O2499   1.262       .  A
N2484      O2500   1.262       .  A
N2486      O2497   1.263       .  A
N2486      O2498   1.262       .  A
C2488      C2489   1.405       .  A
C2488      N2493   1.436       .  S
C2489      C2490   1.418       .  A
C2489      H2494   1.074       .  S
C2490      C2491   1.431       .  A
C2491      C2492   1.414       .  A
C2491      N2495   1.432       .  S
C2492      H2496   1.083       .  S
N2493      O2503   1.263       .  A
N2493      O2504   1.262       .  A
N2495      O2501   1.261       .  A
N2495      O2502   1.262       .  A
C2505      C2506   1.394       .  A
C2505      C2510   1.404       .  A
C2505      H2515   1.084       .  S
C2506      C2511   1.478       .  S
C2506      C2507   1.399       .  A
C2507      C2508   1.397       .  A
C2507      N2512   1.432       .  S
C2508      C2509   1.422       .  A
C2508      H2513   1.072       .  S
C2509      C2510   1.438       .  A
C2510      N2514   1.431       .  S
C2511      C2516   1.405       .  A
C2511      C2520   1.403       .  A
N2512      O2527   1.262       .  A
N2512      O2528   1.262       .  A
N2514      O2525   1.262       .  A
N2514      O2526   1.261       .  A
C2516      C2517   1.396       .  A
C2516      N2521   1.430       .  S
C2517      C2518   1.406       .  A
C2517      H2522   1.084       .  S
C2518      C2519   1.412       .  A
C2519      C2520   1.406       .  A
C2519      N2523   1.429       .  S
C2520      H2524   1.084       .  S
N2521      O2531   1.262       .  A
N2521      O2532   1.262       .  A
N2523      O2529   1.262       .  A
N2523      O2530   1.262       .  A
C2533      C2534   1.397       .  A
C2533      C2538   1.412       .  A
C2533      H2543   1.084       .  S
C2534      C2539   1.480       .  S
C2534      C2535   1.398       .  A
C2535      C2536   1.392       .  A
C2535      N2540   1.431       .  S
C2536      C2537   1.423       .  A
C2536      H2541   1.083       .  S
C2537      C2538   1.440       .  A
C2538      N2542   1.432       .  S
C2539      C2544   1.408       .  A
C2539      C2548   1.403       .  A
N2540      O2555   1.262       .  A
N2540      O2556   1.262       .  A
N2542      O2553   1.263       .  A
N2542      O2554   1.261       .  A
C2544      C2545   1.403       .  A
C2544      N2549   1.429       .  S
C2545      C2546   1.403       .  A
C2545      H2550   1.084       .  S
C2546      C2547   1.409       .  A
C2547      C2548   1.402       .  A
C2547      N2551   1.434       .  S
C2548      H2552   1.084       .  S
N2549      O2559   1.261       .  A
N2549      O2560   1.262       .  A
N2551      O2557   1.262       .  A
N2551      O2558   1.262       .  A
C2561      C2562   1.396       .  A
C2561      C2566   1.406       .  A
C2561      H2571   1.084       .  S
C2562      C2567   1.481       .  S
C2562      C2563   1.400       .  A
C2563      C2564   1.399       .  A
C2563      N2568   1.430       .  S
C2564      C2565   1.423       .  A
C2564      H2569   1.080       .  S
C2565      C2566   1.432       .  A
C2566      N2570   1.429       .  S
C2567      C2572   1.408       .  A
C2567      C2576   1.403       .  A
N2568      O2583   1.262       .  A
N2568      O2584   1.262       .  A
N2570      O2581   1.263       .  A
N2570      O2582   1.262       .  A
C2572      C2573   1.398       .  A
C2572      N2577   1.430       .  S
C2573      C2574   1.405       .  A
C2573      H2578   1.084       .  S
C2574      C2575   1.414       .  A
C2575      C2576   1.406       .  A
C2575      N2579   1.428       .  S
C2576      H2580   1.084       .  S
N2577      O2587   1.262       .  A
N2577      O2588   1.262       .  A
N2579      O2585   1.262       .  A
N2579      O2586   1.262       .  A
C2589      C2590   1.398       .  A
C2589      C2594   1.409       .  A
C2589      H2599   1.084       .  S
C2590      C2595   1.496       .  S
C2590      C2591   1.405       .  A
C2591      C2592   1.401       .  A
C2591      N2596   1.431       .  S
C2592      C2593   1.419       .  A
C2592      H2597   1.083       .  S
C2593      C2594   1.442       .  A
C2594      N2598   1.436       .  S
C2595      C2600   1.408       .  A
C2595      C2604   1.395       .  A
N2596      O2611   1.262       .  A
N2596      O2612   1.262       .  A
N2598      O2609   1.261       .  A
N2598      O2610   1.263       .  A
C2600      C2601   1.408       .  A
C2600      N2605   1.433       .  S
C2601      C2602   1.422       .  A
C2601      H2606   1.078       .  S
C2602      C2603   1.435       .  A
C2603      C2604   1.404       .  A
C2603      N2607   1.428       .  S
C2604      H2608   1.084       .  S
N2605      O2615   1.262       .  A
N2605      O2616   1.262       .  A
N2607      O2613   1.263       .  A
N2607      O2614   1.262       .  A
C2617      C2618   1.395       .  A
C2617      C2622   1.404       .  A
C2617      H2627   1.084       .  S
C2618      C2623   1.484       .  S
C2618      C2619   1.405       .  A
C2619      C2620   1.403       .  A
C2619      N2624   1.428       .  S
C2620      C2621   1.412       .  A
C2620      H2625   1.074       .  S
C2621      C2622   1.438       .  A
C2622      N2626   1.433       .  S
C2623      C2628   1.409       .  A
C2623      C2632   1.401       .  A
N2624      O2639   1.262       .  A
N2624      O2640   1.261       .  A
N2626      O2637   1.261       .  A
N2626      O2638   1.262       .  A
C2628      C2629   1.407       .  A
C2628      N2633   1.429       .  S
C2629      C2630   1.408       .  A
C2629      H2634   1.084       .  S
C2630      C2631   1.413       .  A
C2631      C2632   1.398       .  A
C2631      N2635   1.429       .  S
C2632      H2636   1.084       .  S
N2633      O2643   1.262       .  A
N2633      O2644   1.262       .  A
N2635      O2641   1.261       .  A
N2635      O2642   1.262       .  A
C2645      C2646   1.391       .  A
C2645      C2650   1.394       .  A
C2645      H2655   1.085       .  S
C2646      C2651   1.483       .  S
C2646      C2647   1.405       .  A
C2647      C2648   1.408       .  A
C2647      N2652   1.429       .  S
C2648      C2649   1.420       .  A
C2648      H2653   1.078       .  S
C2649      C2650   1.436       .  A
C2650      N2654   1.432       .  S
C2651      C2656   1.413       .  A
C2651      C2660   1.404       .  A
N2652      O2667   1.262       .  A
N2652      O2668   1.262       .  A
N2654      O2665   1.261       .  A
N2654      O2666   1.261       .  A
C2656      C2657   1.407       .  A
C2656      N2661   1.432       .  S
C2657      C2658   1.403       .  A
C2657      H2662   1.083       .  S
C2658      C2659   1.406       .  A
C2659      C2660   1.399       .  A
C2659      N2663   1.429       .  S
C2660      H2664   1.084       .  S
N2661      O2671   1.262       .  A
N2661      O2672   1.262       .  A
N2663      O2669   1.262       .  A
N2663      O2670   1.262       .  A
C2673      C2674   1.403       .  A
C2673      C2678   1.407       .  A
C2673      H2683   1.084       .  S
C2674      C2679   1.479       .  S
C2674      C2675   1.408       .  A
C2675      C2676   1.396       .  A
C2675      N2680   1.432       .  S
C2676      C2677   1.404       .  A
C2676      H2681   1.084       .  S
C2677      C2678   1.413       .  A
C2678      N2682   1.429       .  S
C2679      C2684   1.399       .  A
C2679      C2688   1.393       .  A
N2680      O2695   1.262       .  A
N2680      O2696   1.262       .  A
N2682      O2693   1.262       .  A
N2682      O2694   1.262       .  A
C2684      C2685   1.399       .  A
C2684      N2689   1.430       .  S
C2685      C2686   1.421       .  A
C2685      H2690   1.072       .  S
C2686      C2687   1.439       .  A
C2687      C2688   1.404       .  A
C2687      N2691   1.434       .  S
C2688      H2692   1.084       .  S
N2689      O2699   1.262       .  A
N2689      O2700   1.262       .  A
N2691      O2697   1.261       .  A
N2691      O2698   1.263       .  A
C2701      C2702   1.400       .  A
C2701      C2706   1.407       .  A
C2701      H2711   1.083       .  S
C2702      C2707   1.498       .  S
C2702      C2703   1.407       .  A
C2703      C2704   1.400       .  A
C2703      N2708   1.431       .  S
C2704      C2705   1.412       .  A
C2704      H2709   1.072       .  S
C2705      C2706   1.440       .  A
C2706      N2710   1.433       .  S
C2707      C2712   1.410       .  A
C2707      C2716   1.400       .  A
N2708      O2723   1.262       .  A
N2708      O2724   1.262       .  A
N2710      O2721   1.262       .  A
N2710      O2722   1.261       .  A
C2712      C2713   1.405       .  A
C2712      N2717   1.433       .  S
C2713      C2714   1.417       .  A
C2713      H2718   1.076       .  S
C2714      C2715   1.435       .  A
C2715      C2716   1.404       .  A
C2715      N2719   1.433       .  S
C2716      H2720   1.084       .  S
N2717      O2727   1.262       .  A
N2717      O2728   1.262       .  A
N2719      O2725   1.261       .  A
N2719      O2726   1.262       .  A
C2729      C2730   1.404       .  A
C2729      C2734   1.406       .  A
C2729      H2739   1.084       .  S
C2730      C2735   1.485       .  S
C2730      C2731   1.414       .  A
C2731      C2732   1.400       .  A
C2731      N2736   1.436       .  S
C2732      C2733   1.402       .  A
C2732      H2737   1.084       .  S
C2733      C2734   1.412       .  A
C2734      N2738   1.430       .  S
C2735      C2740   1.403       .  A
C2735      C2744   1.399       .  A
N2736      O2751   1.262       .  A
N2736      O2752   1.263       .  A
N2738      O2749   1.262       .  A
N2738      O2750   1.262       .  A
C2740      C2741   1.387       .  A
C2740      N2745   1.437       .  S
C2741      C2742   1.414       .  A
C2741      H2746   1.093       .  S
C2742      C2743   1.439       .  A
C2743      C2744   1.413       .  A
C2743      N2747   1.431       .  S
C2744      H2748   1.087       .  S
N2745      O2755   1.262       .  A
N2745      O2756   1.264       .  A
N2747      O2753   1.262       .  A
N2747      O2754   1.261       .  A
C2757      C2758   1.392       .  A
C2757      C2762   1.402       .  A
C2757      H2767   1.085       .  S
C2758      C2763   1.480       .  S
C2758      C2759   1.395       .  A
C2759      C2760   1.399       .  A
C2759      N2764   1.428       .  S
C2760      C2761   1.422       .  A
C2760      H2765   1.076       .  S
C2761      C2762   1.446       .  A
C2762      N2766   1.431       .  S
C2763      C2768   1.407       .  A
C2763      C2772   1.401       .  A
N2764      O2779   1.262       .  A
N2764      O2780   1.262       .  A
N2766      O2777   1.261       .  A
N2766      O2778   1.262       .  A
C2768      C2769   1.397       .  A
C2768      N2773   1.431       .  S
C2769      C2770   1.406       .  A
C2769      H2774   1.084       .  S
C2770      C2771   1.415       .  A
C2771      C2772   1.405       .  A
C2771      N2775   1.428       .  S
C2772      H2776   1.084       .  S
N2773      O2783   1.262       .  A
N2773      O2784   1.262       .  A
N2775      O2781   1.262       .  A
N2775      O2782   1.262       .  A
C2785      C2786   1.403       .  A
C2785      C2790   1.397       .  A
C2785      H2795   1.083       .  S
C2786      C2791   1.495       .  S
C2786      C2787   1.411       .  A
C2787      C2788   1.412       .  A
C2787      N2792   1.429       .  S
C2788      C2789   1.411       .  A
C2788      H2793   1.083       .  S
C2789      C2790   1.416       .  A
C2790      N2794   1.429       .  S
C2791      C2796   1.405       .  A
C2791      C2800   1.402       .  A
N2792      O2807   1.262       .  A
N2792      O2808   1.262       .  A
N2794      O2805   1.262       .  A
N2794      O2806   1.262       .  A
C2796      C2797   1.400       .  A
C2796      N2801   1.431       .  S
C2797      C2798   1.418       .  A
C2797      H2802   1.081       .  S
C2798      C2799   1.430       .  A
C2799      C2800   1.414       .  A
C2799      N2803   1.430       .  S
C2800      H2804   1.083       .  S
N2801      O2811   1.262       .  A
N2801      O2812   1.262       .  A
N2803      O2809   1.262       .  A
N2803      O2810   1.262       .  A
C2813      C2814   1.402       .  A
C2813      C2818   1.411       .  A
C2813      H2823   1.084       .  S
C2814      C2819   1.511       .  S
C2814      C2815   1.411       .  A
C2815      C2816   1.408       .  A
C2815      N2820   1.430       .  S
C2816      C2817   1.418       .  A
C2816      H2821   1.083       .  S
C2817      C2818   1.439       .  A
C2818      N2822   1.432       .  S
C2819      C2824   1.412       .  A
C2819      C2828   1.400       .  A
N2820      O2835   1.261       .  A
N2820      O2836   1.263       .  A
N2822      O2833   1.261       .  A
N2822      O2834   1.263       .  A
C2824      C2825   1.414       .  A
C2824      N2829   1.437       .  S
C2825      C2826   1.424       .  A
C2825      H2830   1.081       .  S
C2826      C2827   1.442       .  A
C2827      C2828   1.412       .  A
C2827      N2831   1.433       .  S
C2828      H2832   1.084       .  S
N2829      O2839   1.262       .  A
N2829      O2840   1.263       .  A
N2831      O2837   1.260       .  A
N2831      O2838   1.262       .  A
C2841      C2842   1.410       .  A
C2841      C2846   1.416       .  A
C2841      H2851   1.083       .  S
C2842      C2847   1.497       .  S
C2842      C2843   1.413       .  A
C2843      C2844   1.388       .  A
C2843      N2848   1.427       .  S
C2844      C2845   1.400       .  A
C2844      H2849   1.084       .  S
C2845      C2846   1.416       .  A
C2846      N2850   1.428       .  S
C2847      C2852   1.413       .  A
C2847      C2856   1.394       .  A
N2848      O2863   1.262       .  A
N2848      O2864   1.262       .  A
N2850      O2861   1.262       .  A
N2850      O2862   1.262       .  A
C2852      C2853   1.417       .  A
C2852      N2857   1.433       .  S
C2853      C2854   1.416       .  A
C2853      H2858   1.078       .  S
C2854      C2855   1.439       .  A
C2855      C2856   1.400       .  A
C2855      N2859   1.436       .  S
C2856      H2860   1.084       .  S
N2857      O2867   1.262       .  A
N2857      O2868   1.262       .  A
N2859      O2865   1.260       .  A
N2859      O2866   1.263       .  A
C2869      C2870   1.396       .  A
C2869      C2874   1.402       .  A
C2869      H2879   1.085       .  S
C2870      C2875   1.491       .  S
C2870      C2871   1.405       .  A
C2871      C2872   1.405       .  A
C2871      N2876   1.436       .  S
C2872      C2873   1.426       .  A
C2872      H2877   1.083       .  S
C2873      C2874   1.435       .  A
C2874      N2878   1.423       .  S
C2875      C2880   1.414       .  A
C2875      C2884   1.408       .  A
N2876      O2891   1.263       .  A
N2876      O2892   1.263       .  A
N2878      O2889   1.260       .  A
N2878      O2890   1.263       .  A
C2880      C2881   1.399       .  A
C2880      N2885   1.431       .  S
C2881      C2882   1.400       .  A
C2881      H2886   1.082       .  S
C2882      C2883   1.408       .  A
C2883      C2884   1.406       .  A
C2883      N2887   1.430       .  S
C2884      H2888   1.084       .  S
N2885      O2895   1.261       .  A
N2885      O2896   1.262       .  A
N2887      O2893   1.262       .  A
N2887      O2894   1.262       .  A
C2897      C2898   1.389       .  A
C2897      C2902   1.392       .  A
C2897      H2907   1.085       .  S
C2898      C2903   1.494       .  S
C2898      C2899   1.410       .  A
C2899      C2900   1.418       .  A
C2899      N2904   1.430       .  S
C2900      C2901   1.422       .  A
C2900      H2905   1.078       .  S
C2901      C2902   1.436       .  A
C2902      N2906   1.427       .  S
C2903      C2908   1.415       .  A
C2903      C2912   1.405       .  A
N2904      O2919   1.262       .  A
N2904      O2920   1.262       .  A
N2906      O2917   1.261       .  A
N2906      O2918   1.259       .  A
C2908      C2909   1.412       .  A
C2908      N2913   1.430       .  S
C2909      C2910   1.406       .  A
C2909      H2914   1.084       .  S
C2910      C2911   1.409       .  A
C2911      C2912   1.400       .  A
C2911      N2915   1.429       .  S
C2912      H2916   1.084       .  S
N2913      O2923   1.262       .  A
N2913      O2924   1.262       .  A
N2915      O2921   1.262       .  A
N2915      O2922   1.261       .  A
C2925      C2926   1.398       .  A
C2925      C2930   1.409       .  A
C2925      H2935   1.084       .  S
C2926      C2931   1.493       .  S
C2926      C2927   1.402       .  A
C2927      C2928   1.403       .  A
C2927      N2932   1.429       .  S
C2928      C2929   1.421       .  A
C2928      H2933   1.078       .  S
C2929      C2930   1.437       .  A
C2930      N2934   1.432       .  S
C2931      C2936   1.403       .  A
C2931      C2940   1.393       .  A
N2932      O2947   1.262       .  A
N2932      O2948   1.262       .  A
N2934      O2945   1.262       .  A
N2934      O2946   1.262       .  A
C2936      C2937   1.408       .  A
C2936      N2941   1.429       .  S
C2937      C2938   1.417       .  A
C2937      H2942   1.073       .  S
C2938      C2939   1.445       .  A
C2939      C2940   1.405       .  A
C2939      N2943   1.433       .  S
C2940      H2944   1.084       .  S
N2941      O2951   1.262       .  A
N2941      O2952   1.262       .  A
N2943      O2949   1.261       .  A
N2943      O2950   1.263       .  A
C2953      C2954   1.400       .  A
C2953      C2958   1.396       .  A
C2953      H2963   1.084       .  S
C2954      C2959   1.478       .  S
C2954      C2955   1.411       .  A
C2955      C2956   1.406       .  A
C2955      N2960   1.430       .  S
C2956      C2957   1.403       .  A
C2956      H2961   1.084       .  S
C2957      C2958   1.409       .  A
C2958      N2962   1.430       .  S
C2959      C2964   1.396       .  A
C2959      C2968   1.391       .  A
N2960      O2975   1.262       .  A
N2960      O2976   1.262       .  A
N2962      O2973   1.262       .  A
N2962      O2974   1.262       .  A
C2964      C2965   1.401       .  A
C2964      N2969   1.429       .  S
C2965      C2966   1.425       .  A
C2965      H2970   1.075       .  S
C2966      C2967   1.438       .  A
C2967      C2968   1.401       .  A
C2967      N2971   1.429       .  S
C2968      H2972   1.085       .  S
N2969      O2979   1.262       .  A
N2969      O2980   1.262       .  A
N2971      O2977   1.261       .  A
N2971      O2978   1.262       .  A
C2981      C2982   1.396       .  A
C2981      C2986   1.413       .  A
C2981      H2991   1.084       .  S
C2982      C2987   1.489       .  S
C2982      C2983   1.396       .  A
C2983      C2984   1.397       .  A
C2983      N2988   1.431       .  S
C2984      C2985   1.427       .  A
C2984      H2989   1.069       .  S
C2985      C2986   1.437       .  A
C2986      N2990   1.426       .  S
C2987      C2992   1.411       .  A
C2987      C2996   1.405       .  A
N2988      O3003   1.262       .  A
N2988      O3004   1.262       .  A
N2990      O3001   1.262       .  A
N2990      O3002   1.262       .  A
C2992      C2993   1.401       .  A
C2992      N2997   1.434       .  S
C2993      C2994   1.405       .  A
C2993      H2998   1.084       .  S
C2994      C2995   1.415       .  A
C2995      C2996   1.410       .  A
C2995      N2999   1.429       .  S
C2996      H3000   1.084       .  S
N2997      O3007   1.262       .  A
N2997      O3008   1.262       .  A
N2999      O3005   1.262       .  A
N2999      O3006   1.262       .  A
C3009      C3010   1.395       .  A
C3009      C3014   1.409       .  A
C3009      H3019   1.084       .  S
C3010      C3015   1.485       .  S
C3010      C3011   1.400       .  A
C3011      C3012   1.404       .  A
C3011      N3016   1.429       .  S
C3012      C3013   1.419       .  A
C3012      H3017   1.073       .  S
C3013      C3014   1.435       .  A
C3014      N3018   1.430       .  S
C3015      C3020   1.407       .  A
C3015      C3024   1.401       .  A
N3016      O3031   1.262       .  A
N3016      O3032   1.262       .  A
N3018      O3029   1.263       .  A
N3018      O3030   1.262       .  A
C3020      C3021   1.407       .  A
C3020      N3025   1.428       .  S
C3021      C3022   1.409       .  A
C3021      H3026   1.083       .  S
C3022      C3023   1.416       .  A
C3023      C3024   1.400       .  A
C3023      N3027   1.429       .  S
C3024      H3028   1.083       .  S
N3025      O3035   1.262       .  A
N3025      O3036   1.262       .  A
N3027      O3033   1.262       .  A
N3027      O3034   1.262       .  A
C3037      C3038   1.403       .  A
C3037      C3042   1.416       .  A
C3037      H3047   1.083       .  S
C3038      C3043   1.514       .  S
C3038      C3039   1.410       .  A
C3039      C3040   1.406       .  A
C3039      N3044   1.435       .  S
C3040      C3041   1.420       .  A
C3040      H3045   1.073       .  S
C3041      C3042   1.434       .  A
C3042      N3046   1.428       .  S
C3043      C3048   1.410       .  A
C3043      C3052   1.403       .  A
N3044      O3059   1.263       .  A
N3044      O3060   1.262       .  A
N3046      O3057   1.263       .  A
N3046      O3058   1.262       .  A
C3048      C3049   1.410       .  A
C3048      N3053   1.432       .  S
C3049      C3050   1.420       .  A
C3049      H3054   1.077       .  S
C3050      C3051   1.440       .  A
C3051      C3052   1.411       .  A
C3051      N3055   1.436       .  S
C3052      H3056   1.082       .  S
N3053      O3063   1.262       .  A
N3053      O3064   1.262       .  A
N3055      O3061   1.261       .  A
N3055      O3062   1.263       .  A
C3065      C3066   1.399       .  A
C3065      C3070   1.412       .  A
C3065      H3075   1.083       .  S
C3066      C3071   1.486       .  S
C3066      C3067   1.400       .  A
C3067      C3068   1.397       .  A
C3067      N3072   1.431       .  S
C3068      C3069   1.422       .  A
C3068      H3073   1.080       .  S
C3069      C3070   1.433       .  A
C3070      N3074   1.431       .  S
C3071      C3076   1.408       .  A
C3071      C3080   1.402       .  A
N3072      O3087   1.262       .  A
N3072      O3088   1.262       .  A
N3074      O3085   1.262       .  A
N3074      O3086   1.261       .  A
C3076      C3077   1.408       .  A
C3076      N3081   1.430       .  S
C3077      C3078   1.410       .  A
C3077      H3082   1.083       .  S
C3078      C3079   1.415       .  A
C3079      C3080   1.396       .  A
C3079      N3083   1.430       .  S
C3080      H3084   1.083       .  S
N3081      O3091   1.262       .  A
N3081      O3092   1.262       .  A
N3083      O3089   1.262       .  A
N3083      O3090   1.262       .  A
C3093      C3094   1.387       .  A
C3093      C3098   1.392       .  A
C3093      H3103   1.085       .  S
C3094      C3099   1.493       .  S
C3094      C3095   1.410       .  A
C3095      C3096   1.419       .  A
C3095      N3100   1.430       .  S
C3096      C3097   1.423       .  A
C3096      H3101   1.078       .  S
C3097      C3098   1.439       .  A
C3098      N3102   1.427       .  S
C3099      C3104   1.413       .  A
C3099      C3108   1.405       .  A
N3100      O3115   1.262       .  A
N3100      O3116   1.262       .  A
N3102      O3113   1.262       .  A
N3102      O3114   1.261       .  A
C3104      C3105   1.411       .  A
C3104      N3109   1.428       .  S
C3105      C3106   1.406       .  A
C3105      H3110   1.083       .  S
C3106      C3107   1.410       .  A
C3107      C3108   1.402       .  A
C3107      N3111   1.429       .  S
C3108      H3112   1.084       .  S
N3109      O3119   1.262       .  A
N3109      O3120   1.262       .  A
N3111      O3117   1.262       .  A
N3111      O3118   1.262       .  A
C3121      C3122   1.396       .  A
C3121      C3126   1.409       .  A
C3121      H3131   1.084       .  S
C3122      C3127   1.485       .  S
C3122      C3123   1.399       .  A
C3123      C3124   1.398       .  A
C3123      N3128   1.430       .  S
C3124      C3125   1.424       .  A
C3124      H3129   1.084       .  S
C3125      C3126   1.439       .  A
C3126      N3130   1.429       .  S
C3127      C3132   1.407       .  A
C3127      C3136   1.405       .  A
N3128      O3143   1.262       .  A
N3128      O3144   1.262       .  A
N3130      O3141   1.261       .  A
N3130      O3142   1.262       .  A
C3132      C3133   1.396       .  A
C3132      N3137   1.429       .  S
C3133      C3134   1.405       .  A
C3133      H3138   1.084       .  S
C3134      C3135   1.412       .  A
C3135      C3136   1.410       .  A
C3135      N3139   1.429       .  S
C3136      H3140   1.083       .  S
N3137      O3147   1.261       .  A
N3137      O3148   1.262       .  A
N3139      O3145   1.262       .  A
N3139      O3146   1.262       .  A
C3149      C3150   1.405       .  A
C3149      C3154   1.410       .  A
C3149      H3159   1.082       .  S
C3150      C3155   1.529       .  S
C3150      C3151   1.424       .  A
C3151      C3152   1.414       .  A
C3151      N3156   1.434       .  S
C3152      C3153   1.416       .  A
C3152      H3157   1.084       .  S
C3153      C3154   1.442       .  A
C3154      N3158   1.436       .  S
C3155      C3160   1.424       .  A
C3155      C3164   1.403       .  A
N3156      O3171   1.263       .  A
N3156      O3172   1.262       .  A
N3158      O3169   1.263       .  A
N3158      O3170   1.260       .  A
C3160      C3161   1.415       .  A
C3160      N3165   1.435       .  S
C3161      C3162   1.415       .  A
C3161      H3166   1.083       .  S
C3162      C3163   1.442       .  A
C3163      C3164   1.407       .  A
C3163      N3167   1.432       .  S
C3164      H3168   1.080       .  S
N3165      O3175   1.263       .  A
N3165      O3176   1.263       .  A
N3167      O3173   1.263       .  A
N3167      O3174   1.261       .  A
C3177      C3178   1.395       .  A
C3177      C3182   1.407       .  A
C3177      H3187   1.084       .  S
C3178      C3183   1.489       .  S
C3178      C3179   1.402       .  A
C3179      C3180   1.404       .  A
C3179      N3184   1.430       .  S
C3180      C3181   1.423       .  A
C3180      H3185   1.073       .  S
C3181      C3182   1.438       .  A
C3182      N3186   1.434       .  S
C3183      C3188   1.408       .  A
C3183      C3192   1.404       .  A
N3184      O3199   1.262       .  A
N3184      O3200   1.262       .  A
N3186      O3197   1.261       .  A
N3186      O3198   1.262       .  A
C3188      C3189   1.400       .  A
C3188      N3193   1.431       .  S
C3189      C3190   1.407       .  A
C3189      H3194   1.084       .  S
C3190      C3191   1.420       .  A
C3191      C3192   1.412       .  A
C3191      N3195   1.432       .  S
C3192      H3196   1.084       .  S
N3193      O3203   1.262       .  A
N3193      O3204   1.262       .  A
N3195      O3201   1.262       .  A
N3195      O3202   1.262       .  A
C3205      C3206   1.396       .  A
C3205      C3210   1.403       .  A
C3205      H3215   1.084       .  S
C3206      C3211   1.492       .  S
C3206      C3207   1.408       .  A
C3207      C3208   1.406       .  A
C3207      N3212   1.431       .  S
C3208      C3209   1.412       .  A
C3208      H3213   1.075       .  S
C3209      C3210   1.440       .  A
C3210      N3214   1.434       .  S
C3211      C3216   1.415       .  A
C3211      C3220   1.404       .  A
N3212      O3227   1.262       .  A
N3212      O3228   1.262       .  A
N3214      O3225   1.261       .  A
N3214      O3226   1.262       .  A
C3216      C3217   1.409       .  A
C3216      N3221   1.432       .  S
C3217      C3218   1.404       .  A
C3217      H3222   1.084       .  S
C3218      C3219   1.411       .  A
C3219      C3220   1.400       .  A
C3219      N3223   1.430       .  S
C3220      H3224   1.084       .  S
N3221      O3231   1.262       .  A
N3221      O3232   1.262       .  A
N3223      O3229   1.262       .  A
N3223      O3230   1.262       .  A
C3233      C3234   1.395       .  A
C3233      C3238   1.395       .  A
C3233      H3243   1.084       .  S
C3234      C3239   1.496       .  S
C3234      C3235   1.408       .  A
C3235      C3236   1.412       .  A
C3235      N3240   1.429       .  S
C3236      C3237   1.420       .  A
C3236      H3241   1.078       .  S
C3237      C3238   1.438       .  A
C3238      N3242   1.433       .  S
C3239      C3244   1.414       .  A
C3239      C3248   1.408       .  A
N3240      O3255   1.262       .  A
N3240      O3256   1.262       .  A
N3242      O3253   1.261       .  A
N3242      O3254   1.261       .  A
C3244      C3245   1.400       .  A
C3244      N3249   1.435       .  S
C3245      C3246   1.402       .  A
C3245      H3250   1.084       .  S
C3246      C3247   1.413       .  A
C3247      C3248   1.412       .  A
C3247      N3251   1.431       .  S
C3248      H3252   1.083       .  S
N3249      O3259   1.262       .  A
N3249      O3260   1.262       .  A
N3251      O3257   1.262       .  A
N3251      O3258   1.262       .  A
C3261      C3262   1.405       .  A
C3261      C3266   1.412       .  A
C3261      H3271   1.082       .  S
C3262      C3267   1.517       .  S
C3262      C3263   1.413       .  A
C3263      C3264   1.407       .  A
C3263      N3268   1.433       .  S
C3264      C3265   1.413       .  A
C3264      H3269   1.071       .  S
C3265      C3266   1.440       .  A
C3266      N3270   1.434       .  S
C3267      C3272   1.414       .  A
C3267      C3276   1.404       .  A
N3268      O3283   1.262       .  A
N3268      O3284   1.262       .  A
N3270      O3281   1.261       .  A
N3270      O3282   1.262       .  A
C3272      C3273   1.408       .  A
C3272      N3277   1.434       .  S
C3273      C3274   1.423       .  A
C3273      H3278   1.076       .  S
C3274      C3275   1.435       .  A
C3275      C3276   1.412       .  A
C3275      N3279   1.430       .  S
C3276      H3280   1.083       .  S
N3277      O3287   1.262       .  A
N3277      O3288   1.262       .  A
N3279      O3285   1.262       .  A
N3279      O3286   1.263       .  A
C3289      C3290   1.403       .  A
C3289      C3294   1.416       .  A
C3289      H3299   1.084       .  S
C3290      C3295   1.494       .  S
C3290      C3291   1.405       .  A
C3291      C3292   1.396       .  A
C3291      N3296   1.438       .  S
C3292      C3293   1.423       .  A
C3292      H3297   1.083       .  S
C3293      C3294   1.435       .  A
C3294      N3298   1.430       .  S
C3295      C3300   1.415       .  A
C3295      C3304   1.405       .  A
N3296      O3311   1.263       .  A
N3296      O3312   1.263       .  A
N3298      O3309   1.261       .  A
N3298      O3310   1.262       .  A
C3300      C3301   1.403       .  A
C3300      N3305   1.435       .  S
C3301      C3302   1.402       .  A
C3301      H3306   1.084       .  S
C3302      C3303   1.413       .  A
C3303      C3304   1.409       .  A
C3303      N3307   1.431       .  S
C3304      H3308   1.084       .  S
N3305      O3315   1.262       .  A
N3305      O3316   1.262       .  A
N3307      O3313   1.262       .  A
N3307      O3314   1.262       .  A
C3317      C3318   1.393       .  A
C3317      C3322   1.402       .  A
C3317      H3327   1.084       .  S
C3318      C3323   1.487       .  S
C3318      C3319   1.406       .  A
C3319      C3320   1.408       .  A
C3319      N3324   1.428       .  S
C3320      C3321   1.416       .  A
C3320      H3325   1.077       .  S
C3321      C3322   1.440       .  A
C3322      N3326   1.436       .  S
C3323      C3328   1.413       .  A
C3323      C3332   1.405       .  A
N3324      O3339   1.262       .  A
N3324      O3340   1.262       .  A
N3326      O3337   1.262       .  A
N3326      O3338   1.261       .  A
C3328      C3329   1.403       .  A
C3328      N3333   1.434       .  S
C3329      C3330   1.404       .  A
C3329      H3334   1.083       .  S
C3330      C3331   1.413       .  A
C3331      C3332   1.408       .  A
C3331      N3335   1.429       .  S
C3332      H3336   1.084       .  S
N3333      O3343   1.262       .  A
N3333      O3344   1.262       .  A
N3335      O3341   1.262       .  A
N3335      O3342   1.262       .  A
C3345      C3346   1.394       .  A
C3345      C3350   1.405       .  A
C3345      H3355   1.084       .  S
C3346      C3351   1.478       .  S
C3346      C3347   1.399       .  A
C3347      C3348   1.398       .  A
C3347      N3352   1.431       .  S
C3348      C3349   1.422       .  A
C3348      H3353   1.071       .  S
C3349      C3350   1.436       .  A
C3350      N3354   1.429       .  S
C3351      C3356   1.408       .  A
C3351      C3360   1.396       .  A
N3352      O3367   1.262       .  A
N3352      O3368   1.262       .  A
N3354      O3365   1.262       .  A
N3354      O3366   1.261       .  A
C3356      C3357   1.407       .  A
C3356      N3361   1.428       .  S
C3357      C3358   1.408       .  A
C3357      H3362   1.083       .  S
C3358      C3359   1.417       .  A
C3359      C3360   1.395       .  A
C3359      N3363   1.430       .  S
C3360      H3364   1.085       .  S
N3361      O3371   1.262       .  A
N3361      O3372   1.262       .  A
N3363      O3369   1.262       .  A
N3363      O3370   1.262       .  A
C3373      C3374   1.401       .  A
C3373      C3378   1.409       .  A
C3373      H3383   1.084       .  S
C3374      C3379   1.507       .  S
C3374      C3375   1.411       .  A
C3375      C3376   1.406       .  A
C3375      N3380   1.434       .  S
C3376      C3377   1.412       .  A
C3376      H3381   1.071       .  S
C3377      C3378   1.442       .  A
C3378      N3382   1.435       .  S
C3379      C3384   1.411       .  A
C3379      C3388   1.403       .  A
N3380      O3395   1.261       .  A
N3380      O3396   1.263       .  A
N3382      O3393   1.263       .  A
N3382      O3394   1.261       .  A
C3384      C3385   1.408       .  A
C3384      N3389   1.437       .  S
C3385      C3386   1.419       .  A
C3385      H3390   1.073       .  S
C3386      C3387   1.438       .  A
C3387      C3388   1.411       .  A
C3387      N3391   1.433       .  S
C3388      H3392   1.084       .  S
N3389      O3399   1.262       .  A
N3389      O3400   1.263       .  A
N3391      O3397   1.261       .  A
N3391      O3398   1.263       .  A
C3401      C3402   1.396       .  A
C3401      C3406   1.408       .  A
C3401      H3411   1.084       .  S
C3402      C3407   1.489       .  S
C3402      C3403   1.401       .  A
C3403      C3404   1.399       .  A
C3403      N3408   1.431       .  S
C3404      C3405   1.425       .  A
C3404      H3409   1.084       .  S
C3405      C3406   1.443       .  A
C3406      N3410   1.431       .  S
C3407      C3412   1.412       .  A
C3407      C3416   1.402       .  A
N3408      O3423   1.262       .  A
N3408      O3424   1.262       .  A
N3410      O3421   1.260       .  A
N3410      O3422   1.263       .  A
C3412      C3413   1.407       .  A
C3412      N3417   1.428       .  S
C3413      C3414   1.403       .  A
C3413      H3418   1.084       .  S
C3414      C3415   1.412       .  A
C3415      C3416   1.398       .  A
C3415      N3419   1.429       .  S
C3416      H3420   1.084       .  S
N3417      O3427   1.262       .  A
N3417      O3428   1.262       .  A
N3419      O3425   1.261       .  A
N3419      O3426   1.262       .  A
C3429      C3430   1.404       .  A
C3429      C3434   1.413       .  A
C3429      H3439   1.083       .  S
C3430      C3435   1.489       .  S
C3430      C3431   1.404       .  A
C3431      C3432   1.395       .  A
C3431      N3436   1.434       .  S
C3432      C3433   1.420       .  A
C3432      H3437   1.077       .  S
C3433      C3434   1.431       .  A
C3434      N3438   1.432       .  S
C3435      C3440   1.412       .  A
C3435      C3444   1.409       .  A
N3436      O3451   1.262       .  A
N3436      O3452   1.262       .  A
N3438      O3449   1.261       .  A
N3438      O3450   1.262       .  A
C3440      C3441   1.400       .  A
C3440      N3445   1.431       .  S
C3441      C3442   1.400       .  A
C3441      H3446   1.085       .  S
C3442      C3443   1.407       .  A
C3443      C3444   1.407       .  A
C3443      N3447   1.429       .  S
C3444      H3448   1.084       .  S
N3445      O3455   1.262       .  A
N3445      O3456   1.262       .  A
N3447      O3453   1.262       .  A
N3447      O3454   1.262       .  A
C3457      C3458   1.406       .  A
C3457      C3462   1.408       .  A
C3457      H3467   1.084       .  S
C3458      C3463   1.492       .  S
C3458      C3459   1.415       .  A
C3459      C3460   1.403       .  A
C3459      N3464   1.433       .  S
C3460      C3461   1.400       .  A
C3460      H3465   1.084       .  S
C3461      C3462   1.410       .  A
C3462      N3466   1.430       .  S
C3463      C3468   1.407       .  A
C3463      C3472   1.391       .  A
N3464      O3479   1.262       .  A
N3464      O3480   1.262       .  A
N3466      O3477   1.262       .  A
N3466      O3478   1.262       .  A
C3468      C3469   1.413       .  A
C3468      N3473   1.429       .  S
C3469      C3470   1.420       .  A
C3469      H3474   1.079       .  S
C3470      C3471   1.440       .  A
C3471      C3472   1.394       .  A
C3471      N3475   1.430       .  S
C3472      H3476   1.085       .  S
N3473      O3483   1.262       .  A
N3473      O3484   1.262       .  A
N3475      O3481   1.262       .  A
N3475      O3482   1.262       .  A
C3485      C3486   1.411       .  A
C3485      C3490   1.416       .  A
C3485      H3495   1.081       .  S
C3486      C3491   1.531       .  S
C3486      C3487   1.420       .  A
C3487      C3488   1.408       .  A
C3487      N3492   1.436       .  S
C3488      C3489   1.419       .  A
C3488      H3493   1.073       .  S
C3489      C3490   1.433       .  A
C3490      N3494   1.432       .  S
C3491      C3496   1.421       .  A
C3491      C3500   1.407       .  A
N3492      O3507   1.263       .  A
N3492      O3508   1.262       .  A
N3494      O3505   1.262       .  A
N3494      O3506   1.262       .  A
C3496      C3497   1.418       .  A
C3496      N3501   1.434       .  S
C3497      C3498   1.422       .  A
C3497      H3502   1.080       .  S
C3498      C3499   1.426       .  A
C3499      C3500   1.407       .  A
C3499      N3503   1.428       .  S
C3500      H3504   1.080       .  S
N3501      O3511   1.262       .  A
N3501      O3512   1.263       .  A
N3503      O3509   1.262       .  A
N3503      O3510   1.262       .  A
C3513      C3514   1.394       .  A
C3513      C3518   1.396       .  A
C3513      H3523   1.085       .  S
C3514      C3519   1.493       .  S
C3514      C3515   1.406       .  A
C3515      C3516   1.412       .  A
C3515      N3520   1.429       .  S
C3516      C3517   1.423       .  A
C3516      H3521   1.078       .  S
C3517      C3518   1.437       .  A
C3518      N3522   1.432       .  S
C3519      C3524   1.412       .  A
C3519      C3528   1.407       .  A
N3520      O3535   1.262       .  A
N3520      O3536   1.262       .  A
N3522      O3533   1.261       .  A
N3522      O3534   1.261       .  A
C3524      C3525   1.399       .  A
C3524      N3529   1.432       .  S
C3525      C3526   1.401       .  A
C3525      H3530   1.084       .  S
C3526      C3527   1.412       .  A
C3527      C3528   1.411       .  A
C3527      N3531   1.431       .  S
C3528      H3532   1.083       .  S
N3529      O3539   1.262       .  A
N3529      O3540   1.262       .  A
N3531      O3537   1.262       .  A
N3531      O3538   1.262       .  A
C3541      C3542   1.394       .  A
C3541      C3546   1.404       .  A
C3541      H3551   1.084       .  S
C3542      C3547   1.487       .  S
C3542      C3543   1.404       .  A
C3543      C3544   1.403       .  A
C3543      N3548   1.433       .  S
C3544      C3545   1.420       .  A
C3544      H3549   1.071       .  S
C3545      C3546   1.441       .  A
C3546      N3550   1.438       .  S
C3547      C3552   1.408       .  A
C3547      C3556   1.405       .  A
N3548      O3563   1.262       .  A
N3548      O3564   1.262       .  A
N3550      O3561   1.262       .  A
N3550      O3562   1.260       .  A
C3552      C3553   1.396       .  A
C3552      N3557   1.430       .  S
C3553      C3554   1.404       .  A
C3553      H3558   1.085       .  S
C3554      C3555   1.417       .  A
C3555      C3556   1.411       .  A
C3555      N3559   1.436       .  S
C3556      H3560   1.084       .  S
N3557      O3567   1.262       .  A
N3557      O3568   1.262       .  A
N3559      O3565   1.262       .  A
N3559      O3566   1.262       .  A
C3569      C3570   1.396       .  A
C3569      C3574   1.408       .  A
C3569      H3579   1.084       .  S
C3570      C3575   1.486       .  S
C3570      C3571   1.401       .  A
C3571      C3572   1.403       .  A
C3571      N3576   1.429       .  S
C3572      C3573   1.423       .  A
C3572      H3577   1.081       .  S
C3573      C3574   1.432       .  A
C3574      N3578   1.428       .  S
C3575      C3580   1.410       .  A
C3575      C3584   1.406       .  A
N3576      O3591   1.262       .  A
N3576      O3592   1.262       .  A
N3578      O3589   1.263       .  A
N3578      O3590   1.262       .  A
C3580      C3581   1.397       .  A
C3580      N3585   1.433       .  S
C3581      C3582   1.404       .  A
C3581      H3586   1.084       .  S
C3582      C3583   1.414       .  A
C3583      C3584   1.411       .  A
C3583      N3587   1.428       .  S
C3584      H3588   1.083       .  S
N3585      O3595   1.262       .  A
N3585      O3596   1.262       .  A
N3587      O3593   1.262       .  A
N3587      O3594   1.262       .  A
C3597      C3598   1.399       .  A
C3597      C3602   1.407       .  A
C3597      H3607   1.084       .  S
C3598      C3603   1.499       .  S
C3598      C3599   1.407       .  A
C3599      C3600   1.405       .  A
C3599      N3604   1.430       .  S
C3600      C3601   1.418       .  A
C3600      H3605   1.083       .  S
C3601      C3602   1.443       .  A
C3602      N3606   1.435       .  S
C3603      C3608   1.406       .  A
C3603      C3612   1.398       .  A
N3604      O3619   1.262       .  A
N3604      O3620   1.262       .  A
N3606      O3617   1.260       .  A
N3606      O3618   1.262       .  A
C3608      C3609   1.405       .  A
C3608      N3613   1.432       .  S
C3609      C3610   1.422       .  A
C3609      H3614   1.078       .  S
C3610      C3611   1.435       .  A
C3611      C3612   1.409       .  A
C3611      N3615   1.429       .  S
C3612      H3616   1.084       .  S
N3613      O3623   1.262       .  A
N3613      O3624   1.262       .  A
N3615      O3621   1.263       .  A
N3615      O3622   1.262       .  A
C3625      C3626   1.394       .  A
C3625      C3630   1.404       .  A
C3625      H3635   1.084       .  S
C3626      C3631   1.478       .  S
C3626      C3627   1.401       .  A
C3627      C3628   1.400       .  A
C3627      N3632   1.430       .  S
C3628      C3629   1.422       .  A
C3628      H3633   1.081       .  S
C3629      C3630   1.431       .  A
C3630      N3634   1.429       .  S
C3631      C3636   1.409       .  A
C3631      C3640   1.403       .  A
N3632      O3647   1.262       .  A
N3632      O3648   1.262       .  A
N3634      O3645   1.263       .  A
N3634      O3646   1.262       .  A
C3636      C3637   1.395       .  A
C3636      N3641   1.431       .  S
C3637      C3638   1.401       .  A
C3637      H3642   1.084       .  S
C3638      C3639   1.413       .  A
C3639      C3640   1.407       .  A
C3639      N3643   1.429       .  S
C3640      H3644   1.084       .  S
N3641      O3651   1.262       .  A
N3641      O3652   1.262       .  A
N3643      O3649   1.262       .  A
N3643      O3650   1.262       .  A
C3653      C3654   1.391       .  A
C3653      C3658   1.395       .  A
C3653      H3663   1.085       .  S
C3654      C3659   1.480       .  S
C3654      C3655   1.402       .  A
C3655      C3656   1.407       .  A
C3655      N3660   1.429       .  S
C3656      C3657   1.423       .  A
C3656      H3661   1.078       .  S
C3657      C3658   1.435       .  A
C3658      N3662   1.431       .  S
C3659      C3664   1.407       .  A
C3659      C3668   1.403       .  A
N3660      O3675   1.262       .  A
N3660      O3676   1.262       .  A
N3662      O3673   1.261       .  A
N3662      O3674   1.261       .  A
C3664      C3665   1.400       .  A
C3664      N3669   1.429       .  S
C3665      C3666   1.401       .  A
C3665      H3670   1.077       .  S
C3666      C3667   1.412       .  A
C3667      C3668   1.406       .  A
C3667      N3671   1.433       .  S
C3668      H3672   1.084       .  S
N3669      O3679   1.262       .  A
N3669      O3680   1.262       .  A
N3671      O3677   1.262       .  A
N3671      O3678   1.262       .  A
C3681      C3682   1.393       .  A
C3681      C3686   1.404       .  A
C3681      H3691   1.084       .  S
C3682      C3687   1.481       .  S
C3682      C3683   1.402       .  A
C3683      C3684   1.401       .  A
C3683      N3688   1.432       .  S
C3684      C3685   1.421       .  A
C3684      H3689   1.071       .  S
C3685      C3686   1.440       .  A
C3686      N3690   1.436       .  S
C3687      C3692   1.408       .  A
C3687      C3696   1.404       .  A
N3688      O3703   1.262       .  A
N3688      O3704   1.262       .  A
N3690      O3701   1.260       .  A
N3690      O3702   1.263       .  A
C3692      C3693   1.397       .  A
C3692      N3697   1.431       .  S
C3693      C3694   1.405       .  A
C3693      H3698   1.084       .  S
C3694      C3695   1.411       .  A
C3695      C3696   1.407       .  A
C3695      N3699   1.428       .  S
C3696      H3700   1.084       .  S
N3697      O3707   1.262       .  A
N3697      O3708   1.262       .  A
N3699      O3705   1.262       .  A
N3699      O3706   1.262       .  A
C3709      C3710   1.400       .  A
C3709      C3714   1.406       .  A
C3709      H3719   1.084       .  S
C3710      C3715   1.493       .  S
C3710      C3711   1.405       .  A
C3711      C3712   1.400       .  A
C3711      N3716   1.432       .  S
C3712      C3713   1.418       .  A
C3712      H3717   1.083       .  S
C3713      C3714   1.440       .  A
C3714      N3718   1.436       .  S
C3715      C3720   1.407       .  A
C3715      C3724   1.399       .  A
N3716      O3731   1.262       .  A
N3716      O3732   1.262       .  A
N3718      O3729   1.263       .  A
N3718      O3730   1.260       .  A
C3720      C3721   1.402       .  A
C3720      N3725   1.433       .  S
C3721      C3722   1.418       .  A
C3721      H3726   1.076       .  S
C3722      C3723   1.434       .  A
C3723      C3724   1.403       .  A
C3723      N3727   1.434       .  S
C3724      H3728   1.083       .  S
N3725      O3735   1.262       .  A
N3725      O3736   1.262       .  A
N3727      O3733   1.262       .  A
N3727      O3734   1.261       .  A
C3737      C3738   1.393       .  A
C3737      C3742   1.399       .  A
C3737      H3747   1.085       .  S
C3738      C3743   1.488       .  S
C3738      C3739   1.404       .  A
C3739      C3740   1.411       .  A
C3739      N3744   1.428       .  S
C3740      C3741   1.419       .  A
C3740      H3745   1.076       .  S
C3741      C3742   1.440       .  A
C3742      N3746   1.433       .  S
C3743      C3748   1.412       .  A
C3743      C3752   1.400       .  A
N3744      O3759   1.262       .  A
N3744      O3760   1.261       .  A
N3746      O3757   1.262       .  A
N3746      O3758   1.260       .  A
C3748      C3749   1.409       .  A
C3748      N3753   1.428       .  S
C3749      C3750   1.404       .  A
C3749      H3754   1.084       .  S
C3750      C3751   1.412       .  A
C3751      C3752   1.403       .  A
C3751      N3755   1.427       .  S
C3752      H3756   1.084       .  S
N3753      O3763   1.262       .  A
N3753      O3764   1.261       .  A
N3755      O3761   1.262       .  A
N3755      O3762   1.262       .  A
C3765      C3766   1.399       .  A
C3765      C3770   1.408       .  A
C3765      H3775   1.084       .  S
C3766      C3771   1.490       .  S
C3766      C3767   1.404       .  A
C3767      C3768   1.402       .  A
C3767      N3772   1.434       .  S
C3768      C3769   1.424       .  A
C3768      H3773   1.071       .  S
C3769      C3770   1.435       .  A
C3770      N3774   1.434       .  S
C3771      C3776   1.416       .  A
C3771      C3780   1.403       .  A
N3772      O3787   1.263       .  A
N3772      O3788   1.262       .  A
N3774      O3785   1.263       .  A
N3774      O3786   1.261       .  A
C3776      C3777   1.409       .  A
C3776      N3781   1.433       .  S
C3777      C3778   1.404       .  A
C3777      H3782   1.084       .  S
C3778      C3779   1.409       .  A
C3779      C3780   1.400       .  A
C3779      N3783   1.432       .  S
C3780      H3784   1.084       .  S
N3781      O3791   1.262       .  A
N3781      O3792   1.263       .  A
N3783      O3789   1.262       .  A
N3783      O3790   1.262       .  A
C3793      C3794   1.404       .  A
C3793      C3798   1.409       .  A
C3793      H3803   1.084       .  S
C3794      C3799   1.485       .  S
C3794      C3795   1.409       .  A
C3795      C3796   1.398       .  A
C3795      N3800   1.428       .  S
C3796      C3797   1.403       .  A
C3796      H3801   1.084       .  S
C3797      C3798   1.416       .  A
C3798      N3802   1.430       .  S
C3799      C3804   1.404       .  A
C3799      C3808   1.392       .  A
N3800      O3815   1.262       .  A
N3800      O3816   1.260       .  A
N3802      O3813   1.262       .  A
N3802      O3814   1.262       .  A
C3804      C3805   1.409       .  A
C3804      N3809   1.430       .  S
C3805      C3806   1.421       .  A
C3805      H3810   1.083       .  S
C3806      C3807   1.443       .  A
C3807      C3808   1.403       .  A
C3807      N3811   1.439       .  S
C3808      H3812   1.084       .  S
N3809      O3819   1.262       .  A
N3809      O3820   1.262       .  A
N3811      O3817   1.259       .  A
N3811      O3818   1.263       .  A
C3821      C3822   1.408       .  A
C3821      C3826   1.412       .  A
C3821      H3831   1.082       .  S
C3822      C3827   1.522       .  S
C3822      C3823   1.418       .  A
C3823      C3824   1.407       .  A
C3823      N3828   1.437       .  S
C3824      C3825   1.416       .  A
C3824      H3829   1.073       .  S
C3825      C3826   1.433       .  A
C3826      N3830   1.432       .  S
C3827      C3832   1.417       .  A
C3827      C3836   1.406       .  A
N3828      O3843   1.263       .  A
N3828      O3844   1.263       .  A
N3830      O3841   1.262       .  A
N3830      O3842   1.261       .  A
C3832      C3833   1.413       .  A
C3832      N3837   1.435       .  S
C3833      C3834   1.424       .  A
C3833      H3838   1.080       .  S
C3834      C3835   1.427       .  A
C3835      C3836   1.408       .  A
C3835      N3839   1.427       .  S
C3836      H3840   1.081       .  S
N3837      O3847   1.262       .  A
N3837      O3848   1.263       .  A
N3839      O3845   1.263       .  A
N3839      O3846   1.262       .  A
C3849      C3850   1.396       .  A
C3849      C3854   1.409       .  A
C3849      H3859   1.084       .  S
C3850      C3855   1.490       .  S
C3850      C3851   1.402       .  A
C3851      C3852   1.400       .  A
C3851      N3856   1.434       .  S
C3852      C3853   1.426       .  A
C3852      H3857   1.075       .  S
C3853      C3854   1.437       .  A
C3854      N3858   1.428       .  S
C3855      C3860   1.411       .  A
C3855      C3864   1.403       .  A
N3856      O3871   1.262       .  A
N3856      O3872   1.263       .  A
N3858      O3869   1.262       .  A
N3858      O3870   1.262       .  A
C3860      C3861   1.402       .  A
C3860      N3865   1.434       .  S
C3861      C3862   1.407       .  A
C3861      H3866   1.084       .  S
C3862      C3863   1.416       .  A
C3863      C3864   1.409       .  A
C3863      N3867   1.428       .  S
C3864      H3868   1.084       .  S
N3865      O3875   1.262       .  A
N3865      O3876   1.262       .  A
N3867      O3873   1.262       .  A
N3867      O3874   1.262       .  A
C3877      C3878   1.391       .  A
C3877      C3882   1.399       .  A
C3877      H3887   1.085       .  S
C3878      C3883   1.479       .  S
C3878      C3879   1.402       .  A
C3879      C3880   1.404       .  A
C3879      N3884   1.428       .  S
C3880      C3881   1.421       .  A
C3880      H3885   1.083       .  S
C3881      C3882   1.444       .  A
C3882      N3886   1.437       .  S
C3883      C3888   1.407       .  A
C3883      C3892   1.402       .  A
N3884      O3899   1.262       .  A
N3884      O3900   1.261       .  A
N3886      O3897   1.259       .  A
N3886      O3898   1.263       .  A
C3888      C3889   1.401       .  A
C3888      N3893   1.429       .  S
C3889      C3890   1.404       .  A
C3889      H3894   1.084       .  S
C3890      C3891   1.414       .  A
C3891      C3892   1.404       .  A
C3891      N3895   1.435       .  S
C3892      H3896   1.084       .  S
N3893      O3903   1.262       .  A
N3893      O3904   1.262       .  A
N3895      O3901   1.262       .  A
N3895      O3902   1.262       .  A
C3905      C3906   1.402       .  A
C3905      C3910   1.416       .  A
C3905      H3915   1.084       .  S
C3906      C3911   1.485       .  S
C3906      C3907   1.399       .  A
C3907      C3908   1.388       .  A
C3907      N3912   1.434       .  S
C3908      C3909   1.422       .  A
C3908      H3913   1.082       .  S
C3909      C3910   1.438       .  A
C3910      N3914   1.436       .  S
C3911      C3916   1.411       .  A
C3911      C3920   1.403       .  A
N3912      O3927   1.262       .  A
N3912      O3928   1.262       .  A
N3914      O3925   1.261       .  A
N3914      O3926   1.263       .  A
C3916      C3917   1.407       .  A
C3916      N3921   1.430       .  S
C3917      C3918   1.404       .  A
C3917      H3922   1.084       .  S
C3918      C3919   1.407       .  A
C3919      C3920   1.396       .  A
C3919      N3923   1.429       .  S
C3920      H3924   1.084       .  S
N3921      O3931   1.262       .  A
N3921      O3932   1.262       .  A
N3923      O3929   1.261   1_554  A
N3923      O3930   1.262       .  A
C3933      C3934   1.396       .  A
C3933      C3938   1.407       .  A
C3933      H3943   1.084       .  S
C3934      C3939   1.498       .  S
C3934      C3935   1.406       .  A
C3935      C3936   1.408       .  A
C3935      N3940   1.431       .  S
C3936      C3937   1.421       .  A
C3936      H3941   1.078       .  S
C3937      C3938   1.436       .  A
C3938      N3942   1.428       .  S
C3939      C3944   1.407       .  A
C3939      C3948   1.399       .  A
N3940      O3955   1.262       .  A
N3940      O3956   1.262       .  A
N3942      O3953   1.262       .  A
N3942      O3954   1.262       .  A
C3944      C3945   1.404       .  A
C3944      N3949   1.433       .  S
C3945      C3946   1.420       .  A
C3945      H3950   1.080       .  S
C3946      C3947   1.439       .  A
C3947      C3948   1.410       .  A
C3947      N3951   1.434       .  S
C3948      H3952   1.084       .  S
N3949      O3959   1.262       .  A
N3949      O3960   1.262       .  A
N3951      O3957   1.262       .  A
N3951      O3958   1.262       .  A
