geometry optimzed in LAMMPS
_audit_creation_date              2020-11-30 
_audit_creation_method            'lammps2cif' 
_symmetry_space_group_name_H-M    'P1' 
_symmetry_Int_Tables_number       1 
_symmetry_cell_setting            triclinic 
loop_ 
_symmetry_equiv_pos_as_xyz 
  x,y,z 
_cell_length_a                    37.724019873288675 
_cell_length_b                    37.3611332560762 
_cell_length_c                    37.441617798702055 
_cell_angle_alpha                 88.96322581630794 
_cell_angle_beta                  89.55668087516065 
_cell_angle_gamma                 89.86175052339985 
loop_ 
_atom_site_label 
_atom_site_type_symbol 
_atom_site_fract_x 
_atom_site_fract_y 
_atom_site_fract_z 
_atom_site_charge 
C1          C  0.70227780  0.65450741  0.91492904     0.03140
C2          C  0.72227121  0.67301002  0.88728467    -0.13010
C3          C  0.71700482  0.71140382  0.88222631     0.00640
C4          C  0.68470649  0.72453959  0.89640165    -0.11530
C5          C  0.67204360  0.70839511  0.92773942     0.03140
C6          C  0.68575786  0.67634444  0.93887679    -0.10950
H7          H  0.74229695  0.65893071  0.87216676     0.08730
H8          H  0.67284657  0.74929390  0.88719380     0.06260
H9          H  0.67949071  0.66677861  0.96568334     0.06110
C10         C  0.81854156  0.65369982  0.76782764     0.03140
C11         C  0.80435726  0.67653668  0.79437236    -0.13010
C12         C  0.80102848  0.71436906  0.78807394     0.00640
C13         C  0.81215220  0.72705577  0.75390035    -0.11530
C14         C  0.82828735  0.70400826  0.72960364     0.03140
C15         C  0.82289032  0.66746717  0.73345654    -0.10950
H16         H  0.79909760  0.66492311  0.82046222     0.08730
H17         H  0.81035331  0.75474009  0.74614496     0.06260
H18         H  0.83497314  0.65024426  0.71364798     0.06110
C19         C  0.71709861  0.80174674  0.79051294     0.03140
C20         C  0.68160324  0.81062243  0.79941188    -0.13010
C21         C  0.65975210  0.82996399  0.77542926     0.00640
C22         C  0.66848880  0.83026509  0.73955879    -0.11530
C23         C  0.70367922  0.82585666  0.72966721     0.03140
C24         C  0.72747326  0.80940722  0.75414455    -0.10950
H25         H  0.67188321  0.80500129  0.82571710     0.08730
H26         H  0.65109710  0.84460942  0.72118406     0.06260
H27         H  0.75417142  0.80460538  0.74486684     0.06110
C28         C  0.77746789  0.72605533  0.85149374     0.02300
C29         C  0.74338353  0.73794164  0.86448667     0.02300
C30         C  0.73205595  0.77408679  0.85432825     0.02300
C31         C  0.74326133  0.78686133  0.81909624     0.02300
C32         C  0.77786590  0.77642319  0.80781879     0.02300
C33         C  0.78860263  0.74031324  0.81722213     0.02300
C34         C  0.33070263  0.35933915  0.89988975     0.03140
C35         C  0.30515271  0.33791429  0.88251154    -0.13010
C36         C  0.31244088  0.30272122  0.87085597     0.00640
C37         C  0.34835659  0.29116865  0.87624577    -0.11530
C38         C  0.37421863  0.31438049  0.89064878     0.03140
C39         C  0.36580891  0.35011230  0.89582534    -0.10950
H40         H  0.27969739  0.34841250  0.87767733     0.08730
H41         H  0.35659715  0.26425216  0.87049828     0.06260
H42         H  0.38547635  0.36713425  0.90805824     0.06110
C43         C  0.81785093  0.36853655  0.38584510     0.03140
C44         C  0.80496119  0.34173148  0.36360609    -0.13010
C45         C  0.80142127  0.30544190  0.37603924     0.00640
C46         C  0.81331430  0.29838701  0.41190324    -0.11530
C47         C  0.82446586  0.32695593  0.43386849     0.03140
C48         C  0.81889764  0.36187588  0.42215030    -0.10950
H49         H  0.79963948  0.34955561  0.33632295     0.08730
H50         H  0.81495292  0.27159277  0.42280028     0.06260
H51         H  0.82742470  0.38343029  0.43920208     0.06110
C52         C  0.37040980  0.83381570  0.39578107     0.03140
C53         C  0.34975302  0.81826478  0.36814878    -0.13010
C54         C  0.31287733  0.80880413  0.37421812     0.00640
C55         C  0.29993961  0.81411173  0.40939769    -0.11530
C56         C  0.32113064  0.82930228  0.43535770     0.03140
C57         C  0.35728300  0.83151591  0.43032354    -0.10950
H58         H  0.36229823  0.81497866  0.34247369     0.08730
H59         H  0.27284579  0.80870009  0.41688968     0.06260
H60         H  0.37301219  0.84244862  0.45173507     0.06110
C61         C  0.80954749  0.80568905  0.37754764     0.03140
C62         C  0.84535908  0.79688467  0.38605475    -0.13010
C63         C  0.86829987  0.82256030  0.40041321     0.00640
C64         C  0.85986152  0.85836172  0.39583353    -0.11530
C65         C  0.82429420  0.86782292  0.39354320     0.03140
C66         C  0.79953194  0.84213949  0.38210858    -0.10950
H67         H  0.85535536  0.77006296  0.38369558     0.08730
H68         H  0.87825168  0.87776906  0.40638844     0.06260
H69         H  0.77227831  0.85056744  0.37952226     0.06110
C70         C  0.80447970  0.80520210  0.79393298     0.03140
C71         C  0.84030077  0.79628062  0.78650967    -0.13010
C72         C  0.86362410  0.82067524  0.76921994     0.00640
C73         C  0.85470776  0.85663506  0.76883817    -0.11530
C74         C  0.81908702  0.86597006  0.77035742     0.03140
C75         C  0.79452195  0.84142958  0.78570958    -0.10950
H76         H  0.84899581  0.76948839  0.79125664     0.08730
H77         H  0.87284132  0.87525758  0.75559240     0.06260
H78         H  0.76763922  0.85047664  0.78900526     0.06110
C79         C  0.80100949  0.30697774  0.86874571     0.03140
C80         C  0.79215259  0.31215400  0.90550356    -0.13010
C81         C  0.81648598  0.32766417  0.92885529     0.00640
C82         C  0.85105225  0.33316131  0.91770907    -0.11530
C83         C  0.86004959  0.33065261  0.88203817     0.03140
C84         C  0.83640103  0.31525752  0.85806585    -0.10950
H85         H  0.76602691  0.30636508  0.91595078     0.08730
H86         H  0.86926393  0.34642438  0.93553564     0.06260
H87         H  0.84563046  0.31146665  0.83109048     0.06110
C88         C  0.80544517  0.70768643  0.87626296     0.03140
C89         C  0.84092300  0.70145915  0.86380629    -0.13010
C90         C  0.86710322  0.68548362  0.88582435     0.00640
C91         C  0.86060150  0.68311505  0.92214779    -0.11530
C92         C  0.82579486  0.68145666  0.93416786     0.03140
C93         C  0.79832263  0.69586212  0.91229971    -0.10950
H94         H  0.84854637  0.70731835  0.83664615     0.08730
H95         H  0.88091840  0.67114872  0.93901180     0.06260
H96         H  0.77219740  0.69742115  0.92386699     0.06110
C97         C  0.16271569  0.82693804  0.38891173     0.03140
C98         C  0.17134337  0.86271669  0.39180942    -0.13010
C99         C  0.20675749  0.87242735  0.39281752     0.00640
C100        C  0.23258195  0.84884109  0.37844455    -0.11530
C101        C  0.22358395  0.81306396  0.36886114     0.03140
C102        C  0.18745368  0.80315970  0.37427324    -0.10950
H103        H  0.15189924  0.88036882  0.40395645     0.08730
H104        H  0.25947274  0.85799185  0.37641467     0.06260
H105        H  0.17835623  0.77636992  0.36971630     0.06110
C106        C  0.19207903  0.86591715  0.77114255     0.03140
C107        C  0.21809997  0.84144652  0.78260928    -0.13010
C108        C  0.21034868  0.80452394  0.78667556     0.00640
C109        C  0.17498791  0.79388239  0.77848866    -0.11530
C110        C  0.14974017  0.81886791  0.76549131     0.03140
C111        C  0.15683636  0.85507043  0.76931571    -0.10950
H112        H  0.24487057  0.85121469  0.78496096     0.08730
H113        H  0.16729067  0.76617894  0.77952085     0.06260
H114        H  0.13780966  0.87415778  0.75843336     0.06110
O115        O  0.92995486  0.77676347  0.61839589    -0.80120
O116        O  0.06654515  0.80062876  0.53667198    -0.80150
O117        O  0.04237131  0.82236973  0.62722157    -0.80150
O118        O  0.98326281  0.81152626  0.53272925    -0.80100
O119        O  0.08519509  0.78840572  0.61046940    -0.80220
O120        O  0.93775308  0.77683010  0.54598441    -0.80140
O121        O  0.03439601  0.78510923  0.49063964    -0.80120
O122        O  0.96892749  0.81808408  0.62957298    -0.80160
C123        C  0.93862887  0.80469581  0.63494106     1.09570
C124        C  0.06166001  0.79995984  0.50203025     1.09450
C125        C  0.07415593  0.81243581  0.63085875     1.09590
C126        C  0.95103481  0.80292966  0.52839009     1.09470
O127        O  0.96895594  0.70698303  0.54912050    -0.80120
O128        O  0.05849310  0.71893416  0.61201170    -0.80200
O129        O  0.97445841  0.74955296  0.66319527    -0.80140
O130        O  0.05637222  0.72923017  0.52918582    -0.80120
O131        O  0.10204288  0.74473410  0.56199975    -0.80170
O132        O  0.96621597  0.70944438  0.62233738    -0.80130
O133        O  0.98482410  0.74293438  0.50683793    -0.80090
O134        O  0.04606454  0.75244510  0.65787117    -0.80160
Co135      Co  0.95460919  0.74351582  0.58407742     1.51530
Co136      Co  0.05763684  0.75891112  0.57637009     1.51690
Co137      Co  0.00789657  0.78486495  0.64042532     1.51570
Co138      Co  0.01827165  0.77172397  0.53555488     1.51470
O139        O  0.00522064  0.76541576  0.58820731    -1.42060
C140        C  0.96595797  0.71705289  0.51696152     1.09490
C141        C  0.06370728  0.72728162  0.64421033     1.09580
C142        C  0.95947539  0.72129197  0.65284988     1.09520
C143        C  0.09058217  0.72926595  0.53504277     1.09500
C144        C  0.36429574  0.70635074  0.88656618     0.03140
C145        C  0.33813420  0.72932770  0.87295947    -0.13010
C146        C  0.30315927  0.71687624  0.86725818     0.00640
C147        C  0.29668317  0.68003513  0.87538186    -0.11530
C148        C  0.32355655  0.65769376  0.88957968     0.03140
C149        C  0.35819051  0.66982113  0.88878817    -0.10950
H150        H  0.34499390  0.75720026  0.86950527     0.08730
H151        H  0.27068617  0.66908185  0.87262972     0.06260
H152        H  0.37852256  0.65285433  0.90073754     0.06110
C153        C  0.31749040  0.82693918  0.72385081     0.03140
C154        C  0.35214752  0.83232639  0.73488645    -0.13010
C155        C  0.35981918  0.83263075  0.77088367     0.00640
C156        C  0.33553760  0.81657511  0.79526477    -0.11530
C157        C  0.30062656  0.80631031  0.78416071     0.03140
C158        C  0.29221090  0.81262813  0.74777400    -0.10950
H159        H  0.37076978  0.84507036  0.71637465     0.08730
H160        H  0.34384264  0.81346388  0.82259928     0.06260
H161        H  0.26562024  0.80861146  0.73810424     0.06110
C162        C  0.22961396  0.74209038  0.80784353     0.02300
C163        C  0.23930775  0.77769711  0.79754527     0.02300
C164        C  0.27276008  0.79032845  0.80992367     0.02300
C165        C  0.28303003  0.77843351  0.84441301     0.02300
C166        C  0.27392957  0.74264706  0.85482420     0.02300
C167        C  0.24090425  0.72933649  0.84233208     0.02300
C168        C  0.21791173  0.71594217  0.77930400     0.03140
C169        C  0.21003615  0.72740381  0.74366637    -0.13010
C170        C  0.19493870  0.70374736  0.71910384     0.00640
C171        C  0.19547817  0.66731969  0.72705496    -0.11530
C172        C  0.19742316  0.65639514  0.76267312     0.03140
C173        C  0.21220389  0.67929732  0.78776970    -0.10950
H174        H  0.21234690  0.75512390  0.73553423     0.08730
H175        H  0.18250460  0.64950898  0.70862409     0.06260
H176        H  0.21567415  0.66888098  0.81458114     0.06110
O177        O  0.97533924  0.54884994  0.86769244    -0.80120
O178        O  0.04189213  0.46850125  0.87013588    -0.80150
O179        O  0.97230700  0.46283890  0.87233763    -0.80150
O180        O  0.04445619  0.55538682  0.87278527    -0.80100
O181        O  0.99965595  0.41552217  0.84882099    -0.80220
O182        O  0.01864696  0.60230442  0.84630933    -0.80140
O183        O  0.09210737  0.49748364  0.86858185    -0.80120
O184        O  0.92405939  0.52210578  0.86610758    -0.80160
C185        C  0.94132372  0.55113009  0.87026702     1.09570
C186        C  0.07588943  0.46796391  0.87359727     1.09450
C187        C  0.97481161  0.42807289  0.86769977     1.09590
C188        C  0.04248550  0.59007248  0.86668520     1.09470
O189        O  0.04413255  0.57389860  0.78625820    -0.80120
O190        O  0.97656943  0.44438661  0.78716438    -0.80200
O191        O  0.93906973  0.53604199  0.79786269    -0.80140
O192        O  0.07988360  0.48367238  0.80052439    -0.80120
O193        O  0.04712747  0.43633549  0.79982463    -0.80170
O194        O  0.97297826  0.58258892  0.79691494    -0.80130
O195        O  0.08699474  0.54658540  0.81389709    -0.80090
O196        O  0.93190356  0.47227563  0.81112893    -0.80160
Co197      Co  0.00976357  0.55901337  0.82553563     1.51530
Co198      Co  0.00912104  0.45915013  0.82706463     1.51690
Co199      Co  0.96179795  0.50515027  0.83560355     1.51570
Co200      Co  0.05555647  0.51349098  0.83723594     1.51470
O201        O  0.00941859  0.50930214  0.80903938    -1.42060
C202        C  0.07714306  0.56914385  0.79119616     1.09490
C203        C  0.94331575  0.44951928  0.78990051     1.09580
C204        C  0.94400235  0.56836829  0.78951066     1.09520
C205        C  0.07580914  0.45152416  0.79229140     1.09500
C206        C  0.16515268  0.34238238  0.88227232     0.03140
C207        C  0.17533131  0.34519626  0.91735602    -0.13010
C208        C  0.20992965  0.33826263  0.92662403     0.00640
C209        C  0.23099514  0.31640656  0.90461503    -0.11530
C210        C  0.22185483  0.31024685  0.86844018     0.03140
C211        C  0.18710191  0.32277290  0.85832206    -0.10950
H212        H  0.15932225  0.36156312  0.93505611     0.08730
H213        H  0.25551877  0.30644923  0.91509604     0.06260
H214        H  0.17697591  0.31807466  0.83215453     0.06110
C215        C  0.15396246  0.69190875  0.88428944     0.03140
C216        C  0.16292788  0.68955629  0.92004801    -0.13010
C217        C  0.19828227  0.68945039  0.92918842     0.00640
C218        C  0.22311792  0.70515104  0.90535040    -0.11530
C219        C  0.21380827  0.71391313  0.86928250     0.03140
C220        C  0.17818182  0.70659130  0.85932969    -0.10950
H221        H  0.14393764  0.67743896  0.93857498     0.08730
H222        H  0.24969669  0.70859796  0.91501875     0.06260
H223        H  0.16927104  0.71047900  0.83223229     0.06110
C224        C  0.29311312  0.80582866  0.87210019     0.03140
C225        C  0.29746182  0.84269746  0.86282637    -0.13010
C226        C  0.31199956  0.86660404  0.88715235     0.00640
C227        C  0.31422381  0.85641892  0.92278196    -0.11530
C228        C  0.31437057  0.82020147  0.93159159     0.03140
C229        C  0.30102689  0.79533638  0.90766907    -0.10950
H230        H  0.29320626  0.85260923  0.83597108     0.08730
H231        H  0.32667652  0.87475979  0.94107049     0.06260
H232        H  0.29994869  0.76766180  0.91636219     0.06110
C233        C  0.69113514  0.86008297  0.89676423     0.03140
C234        C  0.69571931  0.85355634  0.93287274    -0.13010
C235        C  0.69792137  0.81820674  0.94414840     0.00640
C236        C  0.71336555  0.79300050  0.92021087    -0.11530
C237        C  0.71787583  0.80119906  0.88274334     0.03140
C238        C  0.70692477  0.83626821  0.87249171    -0.10950
H239        H  0.68440097  0.87267294  0.95132862     0.08730
H240        H  0.72054564  0.76713303  0.93103553     0.06260
H241        H  0.71011534  0.84518176  0.84572908     0.06110
C242        C  0.22280795  0.72468434  0.37384667     0.03140
C243        C  0.21840405  0.73518454  0.41011383    -0.13010
C244        C  0.20372387  0.71151136  0.43592907     0.00640
C245        C  0.19856313  0.67602607  0.42739134    -0.11530
C246        C  0.19248564  0.66839154  0.39197640     0.03140
C247        C  0.20960441  0.68998483  0.36567214    -0.10950
H248        H  0.22430619  0.76198682  0.41843498     0.08730
H249        H  0.18675877  0.65869142  0.44781124     0.06260
H250        H  0.21154120  0.67970648  0.33929552     0.06110
C251        C  0.29953514  0.78163545  0.31198544     0.02300
C252        C  0.28691227  0.79485609  0.34557590     0.02300
C253        C  0.25097508  0.78527448  0.35547864     0.02300
C254        C  0.23875614  0.75053840  0.34525453     0.02300
C255        C  0.25050737  0.73794568  0.31115910     0.02300
C256        C  0.28592388  0.74690947  0.30081121     0.02300
C257        C  0.31043142  0.71637101  0.28774167     0.03140
C258        C  0.34444060  0.72387298  0.27424463    -0.13010
C259        C  0.36663697  0.69752293  0.25946774     0.00640
C260        C  0.35831412  0.66193415  0.26581528    -0.11530
C261        C  0.32292717  0.65314018  0.27184193     0.03140
C262        C  0.29974503  0.67961607  0.28591584    -0.10950
H263        H  0.35253923  0.75078109  0.27348627     0.08730
H264        H  0.37559884  0.64190669  0.25411351     0.06260
H265        H  0.27294855  0.67170055  0.29253343     0.06110
O266        O  0.31238617  0.43231436  0.05922914    -0.80120
O267        O  0.32226576  0.56506324  0.12040512    -0.80150
O268        O  0.28596127  0.54297093  0.00283578    -0.80150
O269        O  0.27227644  0.48502872  0.15364969    -0.80100
O270        O  0.32736784  0.55943578  0.03988965    -0.80220
O271        O  0.32094816  0.47726358  0.12152611    -0.80140
O272        O  0.27455545  0.55420981  0.15511680    -0.80120
O273        O  0.30619546  0.47957893  0.02324319    -0.80160
C274        C  0.31519261  0.44621846  0.02794207     1.09570
C275        C  0.30610803  0.56564598  0.15088297     1.09450
C276        C  0.31480700  0.55862977  0.00816239     1.09590
C277        C  0.30433798  0.47584902  0.15190948     1.09470
O278        O  0.25821979  0.44373895  0.10539750    -0.80120
O279        O  0.25848657  0.59036521  0.03954811    -0.80200
O280        O  0.24108093  0.49059255  0.99415124    -0.80140
O281        O  0.21256207  0.56211352  0.11363351    -0.80120
O282        O  0.25821524  0.59879322  0.10802029    -0.80170
O283        O  0.24747962  0.45686064  0.04314050    -0.80130
O284        O  0.21284492  0.48082351  0.11084248    -0.80090
O285        O  0.21991705  0.54579160  0.03588625    -0.80160
Co286      Co  0.28943833  0.47413811  0.07722151     1.51530
Co287      Co  0.29204161  0.57440476  0.07731123     1.51690
Co288      Co  0.25981303  0.51075237  0.03483856     1.51570
Co289      Co  0.24323191  0.52087758  0.12946594     1.51470
O290        O  0.27202293  0.52387619  0.08385085    -1.42060
C291        C  0.22637073  0.44909418  0.11394927     1.09490
C292        C  0.22882526  0.57825413  0.02949914     1.09580
C293        C  0.23688779  0.46098016  0.01055999     1.09520
C294        C  0.22654868  0.59312383  0.11719326     1.09500
O295        O  0.92213604  0.49505606  0.35295144    -0.80120
O296        O  0.05635908  0.55974796  0.39023462    -0.80150
O297        O  0.04067760  0.44259981  0.35926884    -0.80150
O298        O  0.97558770  0.59149483  0.34244395    -0.80100
O299        O  0.05551811  0.48549125  0.39346282    -0.80220
O300        O  0.96428923  0.54575883  0.37842403    -0.80140
O301        O  0.04649591  0.59976841  0.34798856    -0.80120
O302        O  0.96723397  0.46177000  0.37030591    -0.80160
C303        C  0.93294252  0.46729801  0.36861932     1.09570
C304        C  0.06082607  0.59098991  0.37750012     1.09450
C305        C  0.06031496  0.45380761  0.38355001     1.09590
C306        C  0.95858141  0.57788440  0.36856128     1.09470
O307        O  0.94055856  0.54310981  0.30807867    -0.80120
O308        O  0.08705039  0.48439762  0.32427047    -0.80200
O309        O  0.99258663  0.42538695  0.31598914    -0.80140
O310        O  0.05664139  0.56567663  0.28102687    -0.80120
O311        O  0.09372042  0.55652881  0.32463355    -0.80170
O312        O  0.96014224  0.47127622  0.29871818    -0.80130
O313        O  0.98411376  0.55943203  0.27426054    -0.80090
O314        O  0.04231652  0.46988125  0.29012294    -0.80160
Co315      Co  0.96704307  0.51010634  0.34000199     1.51530
Co316      Co  0.06925604  0.52143940  0.35717174     1.51690
Co317      Co  0.00681764  0.47057912  0.32914911     1.51570
Co318      Co  0.01576816  0.57515659  0.31229111     1.51470
O319        O  0.01900799  0.52357481  0.33455468    -1.42060
C320        C  0.95189155  0.56237635  0.28267064     1.09490
C321        C  0.07429980  0.46588265  0.29939305     1.09580
C322        C  0.96562062  0.43669525  0.30006523     1.09520
C323        C  0.08611938  0.57182266  0.29532137     1.09500
C324        C  0.22050423  0.31908105  0.28808009     0.03140
C325        C  0.23001214  0.33317870  0.25305266    -0.13010
C326        C  0.20475440  0.35155113  0.23123265     0.00640
C327        C  0.16943615  0.34960694  0.24048320    -0.11530
C328        C  0.16006569  0.34184926  0.27532822     0.03140
C329        C  0.18405449  0.32297450  0.29746959    -0.10950
H330        H  0.25596057  0.33005513  0.24177482     0.08730
H331        H  0.15023843  0.36298676  0.22328950     0.06260
H332        H  0.17446025  0.31345811  0.32293540     0.06110
C333        C  0.82619064  0.32418266  0.22980700     0.03140
C334        C  0.79945326  0.30962080  0.25292019    -0.13010
C335        C  0.80608945  0.30050821  0.28918525     0.00640
C336        C  0.84150756  0.30727648  0.30079447    -0.11530
C337        C  0.86719638  0.32201028  0.27732675     0.03140
C338        C  0.86094104  0.32282855  0.24106492    -0.10950
H339        H  0.77338938  0.30652342  0.24346950     0.08730
H340        H  0.84941626  0.30324076  0.32812979     0.06260
H341        H  0.88133237  0.33446721  0.22380182     0.06110
C342        C  0.82591650  0.70140186  0.22784683     0.03140
C343        C  0.86112205  0.69681881  0.23744184    -0.13010
C344        C  0.86909358  0.69236319  0.27335804     0.00640
C345        C  0.84611991  0.70721476  0.29914068    -0.11530
C346        C  0.81168791  0.71972596  0.28967970     0.03140
C347        C  0.80257481  0.71721237  0.25266221    -0.10950
H348        H  0.87890995  0.68505171  0.21791447     0.08730
H349        H  0.85492049  0.70709631  0.32635528     0.06260
H350        H  0.77658695  0.72466773  0.24325174     0.06110
O351        O  0.83626130  0.53629672  0.03805587    -0.80120
O352        O  0.81351902  0.48319976  0.14421747    -0.80150
O353        O  0.75995841  0.60027997  0.10445167    -0.80150
O354        O  0.77723676  0.42574707  0.05332055    -0.80100
O355        O  0.80251932  0.56254716  0.12379212    -0.80220
O356        O  0.82514581  0.45800679  0.03960480    -0.80140
O357        O  0.78900655  0.43943266  0.11519178    -0.80120
O358        O  0.79661387  0.57609654  0.05348095    -0.80160
C359        C  0.82562816  0.56867702  0.03873745     1.09570
C360        C  0.80994387  0.44985195  0.13888135     1.09450
C361        C  0.78734269  0.59437233  0.12392893     1.09590
C362        C  0.80802480  0.42833722  0.03956301     1.09470
O363        O  0.76137888  0.47125419  0.00354603    -0.80120
O364        O  0.76475432  0.52823025  0.17303353    -0.80200
O365        O  0.72708824  0.55740440  0.04508155    -0.80140
O366        O  0.72037119  0.42803841  0.10489852    -0.80120
O367        O  0.73939221  0.47258780  0.13955033    -0.80170
O368        O  0.76913915  0.54150718  0.00585962    -0.80130
O369        O  0.71721998  0.46930250  0.04266795    -0.80090
O370        O  0.72679072  0.54480567  0.13085810    -0.80160
Co371      Co  0.79817455  0.50198559  0.02512088     1.51530
Co372      Co  0.77396179  0.51431281  0.12645020     1.51690
Co373      Co  0.76201143  0.55354378  0.08655900     1.51570
Co374      Co  0.75137779  0.46056577  0.08273927     1.51470
O375        O  0.77682419  0.50353286  0.07437310    -1.42060
C376        C  0.72964758  0.46328737  0.01142211     1.09490
C377        C  0.73767193  0.54608642  0.16442925     1.09580
C378        C  0.73839132  0.55349542  0.01250086     1.09520
C379        C  0.72142168  0.44360659  0.13507055     1.09500
C380        C  0.71971578  0.80205434  0.38017010     0.03140
C381        C  0.68433602  0.81093426  0.36936855    -0.13010
C382        C  0.65993218  0.82681084  0.39315880     0.00640
C383        C  0.66662046  0.82395938  0.42938731    -0.11530
C384        C  0.70160029  0.82054635  0.44053731     0.03140
C385        C  0.72768871  0.80777569  0.41662960    -0.10950
H386        H  0.67580904  0.80796404  0.34223921     0.08730
H387        H  0.64764054  0.83615216  0.44750514     0.06260
H388        H  0.75447652  0.80489798  0.42617445     0.06110
C389        C  0.82871116  0.65340953  0.39469133     0.03140
C390        C  0.81272120  0.67847650  0.37112644    -0.13010
C391        C  0.80837624  0.71479398  0.38051017     0.00640
C392        C  0.81840442  0.72329378  0.41595393    -0.11530
C393        C  0.83429149  0.69769062  0.43921753     0.03140
C394        C  0.83195334  0.66184882  0.43045584    -0.10950
H395        H  0.80695090  0.67032813  0.34451375     0.08730
H396        H  0.81607176  0.75003757  0.42494047     0.06260
H397        H  0.84497526  0.64231996  0.44776924     0.06110
C398        C  0.74836094  0.78899312  0.35369296     0.02300
C399        C  0.78273963  0.77740687  0.36558935     0.02300
C400        C  0.79531245  0.74334460  0.35319383     0.02300
C401        C  0.78481488  0.73334005  0.31771469     0.02300
C402        C  0.75084704  0.74561648  0.30604675     0.02300
C403        C  0.73906291  0.77991425  0.31820214     0.02300
C404        C  0.72395019  0.71909727  0.29124937     0.03140
C405        C  0.73323502  0.68432102  0.27850211    -0.13010
C406        C  0.70838585  0.66371110  0.25973133     0.00640
C407        C  0.67319977  0.67383903  0.26003759    -0.11530
C408        C  0.66363409  0.70781381  0.27083825     0.03140
C409        C  0.68787087  0.72925250  0.28846177    -0.10950
H410        H  0.75965082  0.67369558  0.28115309     0.08730
H411        H  0.65427418  0.65816911  0.24517773     0.06260
H412        H  0.67868768  0.75516802  0.29691529     0.06110
O413        O  0.53727816  0.71972067  0.03221191    -0.80120
O414        O  0.48877633  0.72073667  0.13528259    -0.80150
O415        O  0.56701564  0.73698005  0.13175368    -0.80150
O416        O  0.45662895  0.72838412  0.03321446    -0.80100
O417        O  0.53335017  0.75338341  0.17812707    -0.80220
O418        O  0.48968035  0.74587161  0.98645248    -0.80140
O419        O  0.44033463  0.74043055  0.10946626    -0.80120
O420        O  0.58230586  0.74562973  0.05838426    -0.80160
C421        C  0.57028703  0.72468863  0.03552505     1.09570
C422        C  0.45527962  0.72243674  0.13411948     1.09450
C423        C  0.56085268  0.73811079  0.16623304     1.09590
C424        C  0.46261652  0.72974599  0.99852949     1.09470
O425        O  0.46269017  0.80048975  0.02234988    -0.80120
O426        O  0.55612843  0.80781451  0.13761731    -0.80200
O427        O  0.56100275  0.81642438  0.05431413    -0.80140
O428        O  0.45809112  0.81295284  0.10159415    -0.80120
O429        O  0.48189691  0.79330620  0.15106545    -0.80170
O430        O  0.54034992  0.78964959  0.00758699    -0.80130
O431        O  0.41664966  0.78147794  0.05571496    -0.80090
O432        O  0.60353041  0.79290254  0.10528287    -0.80160
Co433      Co  0.50288657  0.76008561  0.03084781     1.51530
Co434      Co  0.51985497  0.76382733  0.13217903     1.51690
Co435      Co  0.55983290  0.77756221  0.09130132     1.51570
Co436      Co  0.46102060  0.77093207  0.07070446     1.51470
O437        O  0.51104687  0.76754084  0.08113853    -1.42060
C438        C  0.42824036  0.79836862  0.02851011     1.09490
C439        C  0.59060117  0.80835096  0.13211296     1.09580
C440        C  0.56392338  0.80869774  0.02158221     1.09520
C441        C  0.45660675  0.80833550  0.13494880     1.09500
C442        C  0.33515929  0.82229182  0.22277084     0.03140
C443        C  0.31713617  0.80001746  0.24760809    -0.13010
C444        C  0.31473200  0.80891872  0.28422467     0.00640
C445        C  0.32777448  0.84377541  0.29307308    -0.11530
C446        C  0.34721585  0.86472237  0.26779736     0.03140
C447        C  0.34534363  0.85627870  0.23230190    -0.10950
H448        H  0.30802558  0.77441571  0.23881568     0.08730
H449        H  0.32405567  0.85472729  0.31918621     0.06260
H450        H  0.35963674  0.87302493  0.21301681     0.06110
C451        C  0.69904605  0.86872646  0.28063099     0.03140
C452        C  0.71679517  0.84423560  0.30328980    -0.13010
C453        C  0.72459600  0.80866361  0.29208951     0.00640
C454        C  0.71625387  0.80078165  0.25604729    -0.11530
C455        C  0.70092143  0.82697397  0.23339507     0.03140
C456        C  0.69825760  0.86209187  0.24447791    -0.10950
H457        H  0.72156694  0.85251405  0.33023871     0.08730
H458        H  0.71958404  0.77422502  0.24569943     0.06260
H459        H  0.68457139  0.88125881  0.22723081     0.06110
C460        C  0.71465749  0.30000671  0.28588316     0.03140
C461        C  0.67950058  0.28961215  0.27470939    -0.13010
C462        C  0.65700042  0.31398814  0.25577658     0.00640
C463        C  0.66608077  0.34978794  0.25531261    -0.11530
C464        C  0.70095370  0.35950926  0.26053339     0.03140
C465        C  0.72401503  0.33619846  0.27887148    -0.10950
H466        H  0.66984478  0.26280209  0.27909860     0.08730
H467        H  0.64843046  0.36880976  0.24221175     0.06260
H468        H  0.75000220  0.34616474  0.28515101     0.06110
C469        C  0.74179787  0.27407898  0.30368792     0.02300
C470        C  0.77664350  0.28622955  0.31516753     0.02300
C471        C  0.78692694  0.27650445  0.35074781     0.02300
C472        C  0.77568474  0.24204120  0.36355675     0.02300
C473        C  0.74078265  0.23024150  0.35386014     0.02300
C474        C  0.72935584  0.24023259  0.31801191     0.02300
C475        C  0.70436167  0.20533212  0.44902489     0.03140
C476        C  0.66838683  0.20362636  0.44321599    -0.13010
C477        C  0.65732072  0.19514772  0.40920416     0.00640
C478        C  0.67922257  0.20599537  0.37940098    -0.11530
C479        C  0.71457060  0.21886722  0.38458532     0.03140
C480        C  0.72559792  0.21947024  0.42112420    -0.10950
H481        H  0.65117277  0.19841449  0.46590055     0.08730
H482        H  0.66886979  0.20340442  0.35286867     0.06260
H483        H  0.75131569  0.22916149  0.42861623     0.06110
O484        O  0.47804293  0.97857704  0.28496773    -0.80120
O485        O  0.54932366  0.05597730  0.27554492    -0.80150
O486        O  0.43483434  0.05547256  0.32595064    -0.80150
O487        O  0.56948339  0.98064494  0.30460493    -0.80100
O488        O  0.47028067  0.06193223  0.27870730    -0.80220
O489        O  0.53698455  0.93203757  0.30108877    -0.80140
O490        O  0.58753474  0.04349105  0.31841506    -0.80120
O491        O  0.43858298  0.98667192  0.32843391    -0.80160
C492        C  0.44609131  0.97636941  0.29746512     1.09570
C493        C  0.58105550  0.05622844  0.28773820     1.09450
C494        C  0.43986732  0.06532171  0.29371688     1.09590
C495        C  0.56729495  0.94671273  0.29845641     1.09470
O496        O  0.54981299  0.96010069  0.36599720    -0.80120
O497        O  0.48025162  0.09897540  0.34336871    -0.80200
O498        O  0.47342135  0.98086858  0.39319143    -0.80140
O499        O  0.55629462  0.05364276  0.38491791    -0.80120
O500        O  0.54864945  0.09214452  0.34001976    -0.80170
O501        O  0.48608924  0.94452454  0.34918187    -0.80130
O502        O  0.59886758  0.99188060  0.36910535    -0.80090
O503        O  0.47214104  0.06277350  0.39059317    -0.80160
Co504      Co  0.51737857  0.97470684  0.32108864     1.51530
Co505      Co  0.51175105  0.07321970  0.30957139     1.51690
Co506      Co  0.45897065  0.02178683  0.35969160     1.51570
Co507      Co  0.55736901  0.01352892  0.34910029     1.51470
O508        O  0.50754327  0.02477913  0.33517295    -1.42060
C509        C  0.58341576  0.96180539  0.37317905     1.09490
C510        C  0.46949154  0.09371457  0.37526855     1.09580
C511        C  0.47290712  0.94930730  0.37958871     1.09520
C512        C  0.55824333  0.08566523  0.37161181     1.09500
O513        O  0.47730788  0.26650548  0.99880628    -0.80120
O514        O  0.52757231  0.25122683  0.15907196    -0.80150
O515        O  0.47608435  0.30426880  0.11542992    -0.80150
O516        O  0.56144090  0.30264133  0.04561851    -0.80100
O517        O  0.48689949  0.25522602  0.14957520    -0.80220
O518        O  0.54507016  0.26342270  0.00441766    -0.80140
O519        O  0.54409663  0.29769822  0.12539086    -0.80120
O520        O  0.47338579  0.31127407  0.03617071    -0.80160
C521        C  0.46888684  0.29846020  0.00507082     1.09570
C522        C  0.54439812  0.28153429  0.15616774     1.09450
C523        C  0.47240699  0.28676075  0.14495103     1.09590
C524        C  0.56082054  0.29188931  0.01316005     1.09470
O525        O  0.54318155  0.19275866  0.03426618    -0.80120
O526        O  0.46257031  0.20009665  0.12276511    -0.80200
O527        O  0.43167059  0.24836862  0.04110041    -0.80140
O528        O  0.60305201  0.26949480  0.10231549    -0.80120
O529        O  0.56930531  0.22452492  0.12378482    -0.80170
O530        O  0.46523275  0.20036384  0.03434804    -0.80130
O531        O  0.58018077  0.23312961  0.05181041    -0.80090
O532        O  0.43037550  0.24752205  0.10867766    -0.80160
Co533      Co  0.50765010  0.23075081  0.02250710     1.51530
Co534      Co  0.51335779  0.21792956  0.11768289     1.51690
Co535      Co  0.45774441  0.27757722  0.07533127     1.51570
Co536      Co  0.55604128  0.26574899  0.08494365     1.51470
O537        O  0.50625456  0.25092300  0.07331270    -1.42060
C538        C  0.57455044  0.20503581  0.03520246     1.09490
C539        C  0.43336285  0.21738614  0.12341940     1.09580
C540        C  0.43508923  0.21618132  0.03193599     1.09520
C541        C  0.60016310  0.24082633  0.12118745     1.09500
C542        C  0.29904822  0.21962424  0.28473461     0.03140
C543        C  0.30311886  0.22684944  0.24723800    -0.13010
C544        C  0.31783337  0.20092970  0.22423053     0.00640
C545        C  0.31956664  0.16553470  0.23609617    -0.11530
C546        C  0.32106815  0.15828091  0.27248240     0.03140
C547        C  0.30830570  0.18415603  0.29641313    -0.10950
H548        H  0.29734136  0.25298853  0.23600097     0.08730
H549        H  0.33100225  0.14600553  0.21813890     0.06260
H550        H  0.30737567  0.17631615  0.32411121     0.06110
C551        C  0.32943256  0.15373126  0.87859780     0.03140
C552        C  0.32374809  0.15687852  0.91482221    -0.13010
C553        C  0.32526658  0.19100099  0.92873616     0.00640
C554        C  0.31432196  0.22023938  0.90581260    -0.11530
C555        C  0.30796522  0.21487827  0.86803897     0.03140
C556        C  0.31621174  0.18016387  0.85563169    -0.10950
H557        H  0.33075458  0.13416716  0.93186015     0.08730
H558        H  0.31217114  0.24647455  0.91721947     0.06260
H559        H  0.31274473  0.17239705  0.82852008     0.06110
C560        C  0.69270210  0.20464706  0.93683990     0.03140
C561        C  0.69714206  0.16864615  0.92979949    -0.13010
C562        C  0.69999718  0.15822794  0.89456020     0.00640
C563        C  0.71249337  0.18281733  0.86855042    -0.11530
C564        C  0.71607116  0.21990397  0.87602726     0.03140
C565        C  0.70547528  0.23025209  0.91139220    -0.10950
H566        H  0.68681083  0.14924565  0.94920279     0.08730
H567        H  0.71711516  0.17277083  0.84211962     0.06260
H568        H  0.70629931  0.25763865  0.91968500     0.06110
O569        O  0.60057732  0.99008569  0.80270855    -0.80120
O570        O  0.45319747  0.04641775  0.80050825    -0.80150
O571        O  0.49534369  0.92034704  0.81657363    -0.80150
O572        O  0.55112897  0.08897284  0.82901357    -0.80100
O573        O  0.47417685  0.96791311  0.78847807    -0.80220
O574        O  0.55628453  0.04787336  0.78779174    -0.80140
O575        O  0.48293176  0.08756943  0.83025514    -0.80120
O576        O  0.54824278  0.96430221  0.79612445    -0.80160
C577        C  0.58259787  0.96226678  0.79570911     1.09570
C578        C  0.46166640  0.07924886  0.80648174     1.09450
C579        C  0.47469958  0.93287442  0.79319101     1.09590
C580        C  0.56084677  0.07982947  0.79826304     1.09470
O581        O  0.59262438  0.04265244  0.85360548    -0.80120
O582        O  0.42260678  0.97909103  0.83098863    -0.80200
O583        O  0.53801201  0.93830785  0.86909192    -0.80140
O584        O  0.47726710  0.06435006  0.89878308    -0.80120
O585        O  0.44427831  0.02517231  0.87440098    -0.80170
O586        O  0.57658958  0.98096795  0.86806457    -0.80130
O587        O  0.55640401  0.05872210  0.89751862    -0.80090
O588        O  0.46309884  0.95636097  0.86795202    -0.80160
Co589      Co  0.56185213  0.01072045  0.82654713     1.51530
Co590      Co  0.46608050  0.00266168  0.83184120     1.51690
Co591      Co  0.50776833  0.96493593  0.83488286     1.51570
Co592      Co  0.51669107  0.07036224  0.86405233     1.51470
O593        O  0.51560290  0.01814012  0.84663968    -1.42060
C594        C  0.58741332  0.05789139  0.88312551     1.09490
C595        C  0.43040196  0.95763683  0.85656953     1.09580
C596        C  0.56816882  0.94973211  0.87700573     1.09520
C597        C  0.44739694  0.05607487  0.88565914     1.09500
C598        C  0.69751961  0.36885750  0.89622448     0.03140
C599        C  0.66223598  0.35900906  0.89809783    -0.13010
C600        C  0.65329048  0.32322999  0.89497026     0.00640
C601        C  0.67664315  0.29981397  0.87733776    -0.11530
C602        C  0.71253201  0.30964156  0.87029473     0.03140
C603        C  0.72211215  0.34540467  0.87968214    -0.10950
H604        H  0.64391405  0.37638041  0.91220829     0.08730
H605        H  0.66731679  0.27312100  0.87217558     0.06260
H606        H  0.74875337  0.35489269  0.87574990     0.06110
C607        C  0.82069132  0.36722255  0.76010840     0.03140
C608        C  0.80570632  0.34393180  0.78604498    -0.13010
C609        C  0.79831176  0.30762531  0.77821651     0.00640
C610        C  0.80532666  0.29725194  0.74217218    -0.11530
C611        C  0.82032817  0.32162635  0.71691681     0.03140
C612        C  0.82041733  0.35770540  0.72462246    -0.10950
H613        H  0.80259374  0.35389991  0.81269996     0.08730
H614        H  0.80112928  0.27020169  0.73371610     0.06260
H615        H  0.83256816  0.37603664  0.70526326     0.06110
C616        C  0.77358314  0.29399317  0.84191991     0.02300
C617        C  0.73956606  0.28240505  0.85502575     0.02300
C618        C  0.72955622  0.24646325  0.84661457     0.02300
C619        C  0.74165084  0.23312913  0.81257005     0.02300
C620        C  0.77587711  0.24522963  0.79925494     0.02300
C621        C  0.78535232  0.28113922  0.80769947     0.02300
C622        C  0.71426788  0.21714408  0.78684868     0.03140
C623        C  0.67821591  0.21068550  0.79731065    -0.13010
C624        C  0.65367369  0.19566593  0.77342736     0.00640
C625        C  0.66357572  0.19108047  0.73806846    -0.11530
C626        C  0.69924277  0.18945168  0.72958053     0.03140
C627        C  0.72370247  0.20675592  0.75160380    -0.10950
H628        H  0.66909568  0.21541434  0.82418511     0.08730
H629        H  0.64512284  0.17774214  0.72057832     0.06260
H630        H  0.75012011  0.21020953  0.74129002     0.06110
O631        O  0.75090163  0.93088613  0.61816210    -0.80120
O632        O  0.75326883  0.08119891  0.55260508    -0.80150
O633        O  0.72623522  0.03088137  0.66660773    -0.80150
O634        O  0.70700526  0.96608058  0.53756106    -0.80100
O635        O  0.73072748  0.06336657  0.61665915    -0.80220
O636        O  0.75002921  0.92687071  0.54940172    -0.80140
O637        O  0.70998659  0.04647681  0.53519133    -0.80120
O638        O  0.70933253  0.97214756  0.62538805    -0.80160
C639        C  0.72084079  0.94003229  0.62977267     1.09570
C640        C  0.72493623  0.07741824  0.53590178     1.09450
C641        C  0.72158125  0.06043538  0.65008924     1.09590
C642        C  0.71963369  0.93431216  0.53684808     1.09470
O643        O  0.81828330  0.96015001  0.54276493    -0.80120
O644        O  0.79649184  0.09096833  0.60615982    -0.80200
O645        O  0.77436046  0.97873840  0.65781961    -0.80140
O646        O  0.77761232  0.03703711  0.50725109    -0.80120
O647        O  0.81618535  0.04567466  0.55058662    -0.80170
O648        O  0.81746193  0.96416945  0.62093388    -0.80130
O649        O  0.77464061  0.96818352  0.50434996    -0.80090
O650        O  0.79130335  0.04212722  0.63954223    -0.80160
Co651      Co  0.78414544  0.94957190  0.58223952     1.51530
Co652      Co  0.77679038  0.04922023  0.58644999     1.51690
Co653      Co  0.74696248  0.01021101  0.62609511     1.51570
Co654      Co  0.74213561  0.00395390  0.52544945     1.51470
O655        O  0.76217889  0.99934993  0.57621640    -1.42060
C656        C  0.80543551  0.95689251  0.51168346     1.09490
C657        C  0.79844532  0.07590839  0.63665236     1.09580
C658        C  0.80404471  0.96426180  0.65247612     1.09520
C659        C  0.80645119  0.04973523  0.51797820     1.09500
C660        C  0.81189682  0.17280801  0.42941287     0.03140
C661        C  0.79144893  0.18494873  0.40040559    -0.13010
C662        C  0.80222249  0.21661042  0.38157753     0.00640
C663        C  0.83951622  0.22353483  0.38115153    -0.11530
C664        C  0.86155252  0.20551739  0.40619878     0.03140
C665        C  0.84518061  0.18648343  0.43358040    -0.10950
H666        H  0.76644551  0.17212045  0.39532430     0.08730
H667        H  0.85073762  0.24348633  0.36311597     0.06260
H668        H  0.86024084  0.17811830  0.45681504     0.06110
C669        C  0.86161729  0.20479592  0.75467361     0.03140
C670        C  0.83875744  0.22936750  0.77198935    -0.13010
C671        C  0.80408069  0.21875435  0.78432719     0.00640
C672        C  0.79596893  0.18186046  0.78078347    -0.11530
C673        C  0.81901522  0.15812101  0.76295620     0.03140
C674        C  0.85346706  0.16871671  0.75577479    -0.10950
H675        H  0.84790111  0.25650850  0.77425420     0.08730
H676        H  0.77049016  0.17211204  0.78905560     0.06260
H677        H  0.87079017  0.15045014  0.74150938     0.06110
C678        C  0.36126398  0.17988891  0.76857250     0.03140
C679        C  0.33765296  0.15774356  0.75257442    -0.13010
C680        C  0.31075737  0.17315264  0.73349399     0.00640
C681        C  0.29719094  0.20626354  0.74482403    -0.11530
C682        C  0.30889541  0.21839940  0.77858307     0.03140
C683        C  0.34576832  0.21023623  0.78580654    -0.10950
H684        H  0.34421973  0.12981694  0.74866085     0.08730
H685        H  0.27473973  0.21816912  0.73131637     0.06260
H686        H  0.36008069  0.22401803  0.80634342     0.06110
C687        C  0.29390310  0.24398974  0.84141415     0.02300
C688        C  0.28330296  0.27850329  0.85401905     0.02300
C689        C  0.24858097  0.29192975  0.84214520     0.02300
C690        C  0.23645634  0.28086673  0.80716873     0.02300
C691        C  0.24710883  0.24508689  0.79535815     0.02300
C692        C  0.28252567  0.23443512  0.80592130     0.02300
O693        O  0.26450532  0.93188884  0.54689021    -0.80120
O694        O  0.26994667  0.08277839  0.60685408    -0.80150
O695        O  0.29940820  0.03283918  0.49571940    -0.80150
O696        O  0.31258909  0.96809129  0.62136398    -0.80100
O697        O  0.29253931  0.06282992  0.54523469    -0.80220
O698        O  0.26890001  0.92883534  0.61554509    -0.80140
O699        O  0.31147983  0.04391641  0.61808693    -0.80120
O700        O  0.30936220  0.96928122  0.53859048    -0.80160
C701        C  0.29527285  0.93816674  0.53564223     1.09570
C702        C  0.29884591  0.07501758  0.62175918     1.09450
C703        C  0.30117333  0.06265424  0.51192453     1.09590
C704        C  0.30063639  0.93639947  0.62430520     1.09470
O705        O  0.20182349  0.96476648  0.62322194    -0.80120
O706        O  0.22720755  0.09368414  0.54790605    -0.80200
O707        O  0.24508274  0.98109635  0.50474514    -0.80140
O708        O  0.24154545  0.04026980  0.65094487    -0.80120
O709        O  0.20382471  0.05230703  0.60718879    -0.80170
O710        O  0.20104388  0.96738346  0.54237633    -0.80130
O711        O  0.24757355  0.97162212  0.65907450    -0.80090
O712        O  0.23297100  0.04352101  0.51794150    -0.80160
Co713      Co  0.23380207  0.95223214  0.58250384     1.51530
Co714      Co  0.24473578  0.05243607  0.57261076     1.51690
Co715      Co  0.27496724  0.01056360  0.53545978     1.51570
Co716      Co  0.27828828  0.00585461  0.63384271     1.51470
O717        O  0.25667125  0.00138337  0.58491757    -1.42060
C718        C  0.21611101  0.96183176  0.65402367     1.09490
C719        C  0.22430441  0.07684296  0.51880268     1.09580
C720        C  0.21470995  0.96762867  0.51058888     1.09520
C721        C  0.21286110  0.05429035  0.64008863     1.09500
O722        O  0.96310099  0.33004192  0.54119739    -0.80120
O723        O  0.03264710  0.29443522  0.66351001    -0.80150
O724        O  0.93295614  0.27451441  0.61252286    -0.80150
O725        O  0.08063301  0.28482232  0.54818261    -0.80100
O726        O  0.97324667  0.31604967  0.62421263    -0.80220
O727        O  0.04511061  0.33092887  0.53945847    -0.80140
O728        O  0.06481357  0.29548982  0.61358168    -0.80120
O729        O  0.92779167  0.28225894  0.54492688    -0.80160
C730        C  0.93228843  0.31535261  0.53842755     1.09570
C731        C  0.06139860  0.30206022  0.64737129     1.09450
C732        C  0.94144687  0.30378985  0.62662209     1.09590
C733        C  0.07612720  0.31636712  0.53723172     1.09470
O734        O  0.03840073  0.26893056  0.49887659    -0.80120
O735        O  0.98178077  0.24810975  0.65015560    -0.80200
O736        O  0.96456467  0.21888945  0.52803630    -0.80140
O737        O  0.09181885  0.23155794  0.59349348    -0.80120
O738        O  0.04407518  0.23258134  0.62832378    -0.80170
O739        O  0.97025663  0.27062344  0.49859924    -0.80130
O740        O  0.04727177  0.22203106  0.53502823    -0.80090
O741        O  0.96701221  0.20835066  0.61030790    -0.80160
Co742      Co  0.00394091  0.29986681  0.52388468     1.51530
Co743      Co  0.01195024  0.27888367  0.62091942     1.51690
Co744      Co  0.95236880  0.24573898  0.57333260     1.51570
Co745      Co  0.05017676  0.25441188  0.57729675     1.51470
O746        O  0.00062940  0.27034152  0.57019409    -1.42060
C747        C  0.05020444  0.23757063  0.50420842     1.09490
C748        C  0.96688653  0.21919019  0.64289567     1.09580
C749        C  0.96307865  0.23772313  0.49879159     1.09520
C750        C  0.07735760  0.22543690  0.62370727     1.09500
C751        C  0.21308350  0.22524600  0.37323137     0.03140
C752        C  0.21823436  0.18805250  0.38293362    -0.13010
C753        C  0.18943100  0.16667739  0.39622231     0.00640
C754        C  0.15558793  0.17958794  0.39039467    -0.11530
C755        C  0.15084101  0.21619729  0.39122278     0.03140
C756        C  0.17795962  0.23840646  0.37820081    -0.10950
H757        H  0.24410506  0.17589017  0.38181653     0.08730
H758        H  0.13310341  0.16250199  0.39607399     0.06260
H759        H  0.17102493  0.26596121  0.37355085     0.06110
C760        C  0.22224823  0.30996141  0.78015516     0.03140
C761        C  0.20973288  0.30099691  0.74600501    -0.13010
C762        C  0.19238418  0.32606988  0.72338941     0.00640
C763        C  0.19962708  0.36180139  0.72818605    -0.11530
C764        C  0.20399296  0.37228522  0.76304443     0.03140
C765        C  0.21943280  0.34729656  0.78790651    -0.10950
H766        H  0.21388011  0.27479693  0.73681570     0.08730
H767        H  0.18801798  0.38101262  0.70950258     0.06260
H768        H  0.22715832  0.35683030  0.81361454     0.06110
C769        C  0.22027129  0.21757008  0.77790052     0.03140
C770        C  0.22847988  0.18091130  0.76815255    -0.13010
C771        C  0.20366515  0.15927966  0.74913433     0.00640
C772        C  0.16938759  0.17108884  0.74593219    -0.11530
C773        C  0.16204817  0.20686438  0.74900677     0.03140
C774        C  0.18491374  0.22818023  0.76960501    -0.10950
H775        H  0.25322189  0.16860535  0.77551876     0.08730
H776        H  0.15078016  0.15448452  0.73161265     0.06260
H777        H  0.17578676  0.25365392  0.77793164     0.06110
C778        C  0.71778488  0.21155251  0.29104696     0.03140
C779        C  0.70930777  0.17598034  0.30217773    -0.13010
C780        C  0.69906734  0.15021512  0.27712444     0.00640
C781        C  0.70405506  0.15766379  0.24097682    -0.11530
C782        C  0.70191618  0.19297552  0.22929304     0.03140
C783        C  0.71404310  0.21923722  0.25332655    -0.10950
H784        H  0.70945895  0.16794848  0.32994334     0.08730
H785        H  0.70001050  0.13652123  0.22214042     0.06260
H786        H  0.71891209  0.24563975  0.24245521     0.06110
C787        C  0.22414899  0.72362160  0.28339817     0.03140
C788        C  0.23457649  0.71248927  0.24848962    -0.13010
C789        C  0.20972948  0.69727336  0.22509659     0.00640
C790        C  0.17406257  0.69707688  0.23413458    -0.11530
C791        C  0.16412245  0.70184667  0.26929311     0.03140
C792        C  0.18765027  0.71972000  0.29197714    -0.10950
H793        H  0.26168075  0.71417661  0.23952625     0.08730
H794        H  0.15580761  0.68344311  0.21665166     0.06260
H795        H  0.17816087  0.72766086  0.31758131     0.06110
C796        C  0.35567054  0.30840436  0.23819955     0.03140
C797        C  0.34531411  0.34241262  0.22780142    -0.13010
C798        C  0.32661575  0.36457458  0.25018394     0.00640
C799        C  0.30588190  0.34722528  0.27768984    -0.11530
C800        C  0.30813018  0.30873743  0.28260962     0.03140
C801        C  0.33929369  0.29267344  0.26827550    -0.10950
H802        H  0.35457103  0.35309451  0.20244148     0.08730
H803        H  0.28657844  0.36251791  0.29256805     0.06260
H804        H  0.34845998  0.26674391  0.27734888     0.06110
C805        C  0.36568963  0.20342716  0.38812171     0.03140
C806        C  0.35441935  0.19617263  0.42291360    -0.13010
C807        C  0.31848688  0.19416921  0.43032204     0.00640
C808        C  0.29447114  0.21232277  0.40827063    -0.11530
C809        C  0.30433151  0.22339772  0.37324069     0.03140
C810        C  0.34104283  0.21861196  0.36356308    -0.10950
H811        H  0.37237437  0.18202131  0.44087125     0.08730
H812        H  0.26779852  0.21516873  0.41818493     0.06260
H813        H  0.35022588  0.22435648  0.33667054     0.06110
C814        C  0.19393643  0.32543597  0.44043267     0.03140
C815        C  0.19118961  0.36129571  0.43080210    -0.13010
C816        C  0.18982292  0.37014585  0.39496464     0.00640
C817        C  0.20791331  0.34805149  0.37060520    -0.11530
C818        C  0.21820655  0.31266051  0.37939251     0.03140
C819        C  0.21008883  0.30148658  0.41564736    -0.10950
H820        H  0.17830029  0.37930160  0.44940196     0.08730
H821        H  0.21313324  0.35778008  0.34458095     0.06260
H822        H  0.21492753  0.27435950  0.42426764     0.06110
C823        C  0.27948965  0.28538125  0.30158048     0.02300
C824        C  0.24672462  0.30056425  0.31497120     0.02300
C825        C  0.23445239  0.28755326  0.35030853     0.02300
C826        C  0.24290479  0.25093705  0.35982934     0.02300
C827        C  0.27617748  0.23737198  0.34684326     0.02300
C828        C  0.28700093  0.24851934  0.31168998     0.02300
C829        C  0.09268135  0.31401039  0.66770923    -0.00140
C830        C  0.09562073  0.30241794  0.70322511    -0.12020
C831        C  0.12741459  0.30551158  0.72180923     0.02090
C832        C  0.15846137  0.31871425  0.70410560    -0.00230
C833        C  0.15463129  0.33239010  0.66899938    -0.11960
C834        C  0.12191891  0.33126678  0.65137649     0.01980
H835        H  0.07305939  0.28983167  0.71647278     0.14960
H836        H  0.17695696  0.34545273  0.65587630     0.14960
C837        C  0.11768567  0.35188161  0.61879747     0.36610
C838        C  0.12559213  0.29524700  0.75901599     0.36520
N839        N  0.11381939  0.36986430  0.59364519    -0.43730
N840        N  0.12120198  0.28692955  0.78867049    -0.43730
C841        C  0.16577525  0.31546523  0.46736390    -0.00140
C842        C  0.13073821  0.31721598  0.45488714    -0.12020
C843        C  0.10200176  0.32658652  0.47682830     0.02090
C844        C  0.10621876  0.32860424  0.51401100    -0.00230
C845        C  0.14116200  0.32392329  0.52726447    -0.11960
C846        C  0.17073372  0.31938231  0.50429498     0.01980
H847        H  0.12616895  0.31315322  0.42714619     0.14960
H848        H  0.14531788  0.32194502  0.55577380     0.14960
C849        C  0.20583873  0.31753476  0.51914520     0.36610
C850        C  0.06805906  0.33283012  0.46043581     0.36520
N851        N  0.23406240  0.31587680  0.53095495    -0.43730
N852        N  0.04105373  0.33847178  0.44705616    -0.43730
C853        C  0.13803662  0.21985808  0.71997407    -0.00140
C854        C  0.10387828  0.20434132  0.71888012    -0.12020
C855        C  0.08560194  0.20120981  0.68647724     0.02090
C856        C  0.09931741  0.21727348  0.65514792    -0.00230
C857        C  0.13270384  0.23284282  0.65591342    -0.11960
C858        C  0.15248710  0.23320788  0.68706604     0.01980
H859        H  0.09350722  0.19073484  0.74255273     0.14960
H860        H  0.14340546  0.24554216  0.63184321     0.14960
C861        C  0.18734218  0.24793039  0.68238095     0.36610
C862        C  0.05573271  0.17729605  0.68457423     0.36520
N863        N  0.21373803  0.26193338  0.67466446    -0.43730
N864        N  0.03225699  0.15756137  0.68257860    -0.43730
C865        C  0.12565991  0.22812589  0.41913086    -0.00140
C866        C  0.08966256  0.22471674  0.41218430    -0.12020
C867        C  0.06469968  0.22288923  0.43998325     0.02090
C868        C  0.07518530  0.22581526  0.47610401    -0.00230
C869        C  0.11137836  0.23046926  0.48299495    -0.11960
C870        C  0.13661546  0.23060084  0.45522365     0.01980
H871        H  0.08133174  0.22038670  0.38491149     0.14960
H872        H  0.12005323  0.23398919  0.51026445     0.14960
C873        C  0.17353410  0.22899051  0.46511368     0.36610
C874        C  0.02960897  0.21324006  0.42965366     0.36520
N875        N  0.20285644  0.22689079  0.47380515    -0.43730
N876        N  0.00347696  0.20362680  0.41723408    -0.43730
C877        C  0.19359635  0.13850048  0.42539257    -0.00140
C878        C  0.21807154  0.11069708  0.42181507    -0.12020
C879        C  0.22493778  0.08703128  0.45066283     0.02090
C880        C  0.21209526  0.09509897  0.48553111    -0.00230
C881        C  0.18649613  0.12154342  0.48859333    -0.11960
C882        C  0.17396503  0.13940899  0.45828347     0.01980
H883        H  0.23007558  0.10619523  0.39593312     0.14960
H884        H  0.17317029  0.12504524  0.51411294     0.14960
C885        C  0.13688720  0.14815897  0.46047636     0.36610
C886        C  0.24355527  0.05442192  0.44260704     0.36520
N887        N  0.10652335  0.15186750  0.46294105    -0.43730
N888        N  0.25823183  0.02858795  0.43434130    -0.43730
C889        C  0.19870845  0.08160126  0.66488607    -0.00140
C890        C  0.21082099  0.11633683  0.65816240    -0.12020
C891        C  0.21669515  0.14036956  0.68584823     0.02090
C892        C  0.21102651  0.13041580  0.72236078    -0.00230
C893        C  0.19622137  0.09615625  0.72875209    -0.11960
C894        C  0.18968470  0.07232484  0.70054148     0.01980
H895        H  0.21852186  0.12398512  0.63109580     0.14960
H896        H  0.18720948  0.08908694  0.75551939     0.14960
C897        C  0.16908774  0.04061117  0.70776823     0.36610
C898        C  0.23111381  0.17431622  0.67501113     0.36520
N899        N  0.15098215  0.01615928  0.71335752    -0.43730
N900        N  0.24517089  0.19946007  0.66354549    -0.43730
C901        C  0.30799242  0.09748010  0.49252263    -0.00140
C902        C  0.31199901  0.09682070  0.45529073    -0.12020
C903        C  0.30833320  0.12808091  0.43454594     0.02090
C904        C  0.30778277  0.16186241  0.45088359    -0.00230
C905        C  0.30613619  0.16323252  0.48781758    -0.11960
C906        C  0.30363780  0.13176791  0.50850959     0.01980
H907        H  0.31453981  0.07146767  0.44192260     0.14960
H908        H  0.30543741  0.18916884  0.50042648     0.14960
C909        C  0.29235368  0.13734256  0.54464900     0.36610
C910        C  0.30153532  0.12433426  0.39697930     0.36520
N911        N  0.28107721  0.14568974  0.57204175    -0.43730
N912        N  0.29485890  0.12029175  0.36720092    -0.43730
C913        C  0.30103322  0.15216267  0.70243884    -0.00140
C914        C  0.29157821  0.11662273  0.71021995    -0.12020
C915        C  0.29779192  0.08970066  0.68601467     0.02090
C916        C  0.30930268  0.09836669  0.65098180    -0.00230
C917        C  0.31855977  0.13398984  0.64279942    -0.11960
C918        C  0.31536929  0.16070609  0.66849603     0.01980
H919        H  0.28278412  0.10941458  0.73710821     0.14960
H920        H  0.32906451  0.14078475  0.61660966     0.14960
C921        C  0.32841262  0.19622849  0.66027145     0.36610
C922        C  0.29165173  0.05369054  0.69879010     0.36520
N923        N  0.33879489  0.22478465  0.65397565    -0.43730
N924        N  0.28500939  0.02568208  0.71059026    -0.43730
C925        C  0.88859179  0.21453269  0.72677413    -0.00140
C926        C  0.92442240  0.21168434  0.73528955    -0.12020
C927        C  0.95063671  0.21046705  0.70845792     0.02090
C928        C  0.94137354  0.20767039  0.67161576    -0.00230
C929        C  0.90516909  0.20963340  0.66335658    -0.11960
C930        C  0.87929159  0.21477549  0.69013778     0.01980
H931        H  0.93201815  0.21126953  0.76318130     0.14960
H932        H  0.89729996  0.21113218  0.63556241     0.14960
C933        C  0.84370152  0.22317181  0.67900849     0.36610
C934        C  0.98639486  0.21692309  0.72000050     0.36520
N935        N  0.81574115  0.23130606  0.66924728    -0.43730
N936        N  0.01409898  0.22389055  0.73090498    -0.43730
C937        C  0.90053139  0.20883623  0.41007245    -0.00140
C938        C  0.91430299  0.24307619  0.41090957    -0.12020
C939        C  0.93956054  0.25108579  0.43640316     0.02090
C940        C  0.94753815  0.22567099  0.46456512    -0.00230
C941        C  0.93903554  0.18987182  0.45887355    -0.11960
C942        C  0.91933376  0.18107990  0.42862314     0.01980
H943        H  0.90324882  0.26424370  0.39416234     0.14960
H944        H  0.94776145  0.16917565  0.47748159     0.14960
C945        C  0.91225681  0.14381927  0.42186931     0.36610
C946        C  0.95717634  0.28500799  0.43157963     0.36520
N947        N  0.90644714  0.11400629  0.41649469    -0.43730
N948        N  0.97174376  0.31177596  0.42639610    -0.43730
C949        C  0.80582322  0.13400964  0.73500090    -0.00140
C950        C  0.79504189  0.15114243  0.70327223    -0.12020
C951        C  0.79505916  0.13360247  0.67069657     0.02090
C952        C  0.80432502  0.09694335  0.66942312    -0.00230
C953        C  0.81353698  0.07908343  0.70157566    -0.11960
C954        C  0.81510745  0.09749463  0.73398817     0.01980
H955        H  0.78819596  0.17920038  0.70377638     0.14960
H956        H  0.81989465  0.05077444  0.70136282     0.14960
C957        C  0.82693134  0.07875921  0.76573283     0.36610
C958        C  0.78462398  0.15408309  0.63936006     0.36520
N959        N  0.83634634  0.06367830  0.79121685    -0.43730
N960        N  0.77630234  0.17059557  0.61433254    -0.43730
C961        C  0.80458520  0.14157456  0.45269539    -0.00140
C962        C  0.80617428  0.10829000  0.43671852    -0.12020
C963        C  0.81254342  0.07733174  0.45700245     0.02090
C964        C  0.81853070  0.07926889  0.49449921    -0.00230
C965        C  0.81835919  0.11305906  0.51012351    -0.11960
C966        C  0.80992434  0.14372747  0.49001870     0.01980
H967        H  0.80317758  0.10657058  0.40798465     0.14960
H968        H  0.82103220  0.11520719  0.53882497     0.14960
C969        C  0.80817006  0.17756941  0.50801587     0.36610
C970        C  0.80797184  0.04400442  0.43876776     0.36520
N971        N  0.80700169  0.20461000  0.52255018    -0.43730
N972        N  0.80244389  0.01861977  0.42252234    -0.43730
C973        C  0.70906549  0.15786869  0.70803280    -0.00140
C974        C  0.69803525  0.15662230  0.67225924    -0.12020
C975        C  0.69833574  0.12427578  0.65361135     0.02090
C976        C  0.71135195  0.09273000  0.67018428    -0.00230
C977        C  0.72059947  0.09361834  0.70625956    -0.11960
C978        C  0.71882020  0.12523883  0.72536913     0.01980
H979        H  0.68711652  0.18051596  0.65964163     0.14960
H980        H  0.73018522  0.06951617  0.71964324     0.14960
C981        C  0.72632708  0.12224066  0.76302974     0.36610
C982        C  0.68121590  0.12310297  0.61938858     0.36520
N983        N  0.73265541  0.11765006  0.79296882    -0.43730
N984        N  0.66610870  0.12176686  0.59267570    -0.43730
C985        C  0.84999740  0.31186116  0.69238817    -0.00140
C986        C  0.88376441  0.30749970  0.70775639    -0.12020
C987        C  0.91501695  0.31118573  0.68732784     0.02090
C988        C  0.91322548  0.31792893  0.65020515    -0.00230
C989        C  0.87943297  0.32235312  0.63489454    -0.11960
C990        C  0.84820529  0.31965618  0.65551116     0.03420
H991        H  0.88575165  0.30265039  0.73626281     0.14960
H992        H  0.87743676  0.32615852  0.60626370     0.14960
C993        C  0.81441140  0.32436309  0.63828056     0.36610
C994        C  0.94867407  0.30726552  0.70502861     0.36520
N995        N  0.78724157  0.32785949  0.62450312    -0.43730
N996        N  0.97554655  0.30457304  0.71953099    -0.43730
C997        C  0.58456025  0.10613350  0.78092654    -0.00140
C998        C  0.57014992  0.14027131  0.77330450    -0.12020
C999        C  0.59126151  0.17128369  0.77415633     0.02090
C1000       C  0.62684150  0.16892645  0.78523896    -0.00230
C1001       C  0.64054894  0.13508346  0.79409320    -0.11960
C1002       C  0.62081726  0.10394165  0.78967786     0.01980
H1003       H  0.54196493  0.14284404  0.76832386     0.14960
H1004       H  0.66786707  0.13284132  0.80207788     0.14960
C1005       C  0.63864992  0.07009681  0.79518026     0.36610
C1006       C  0.57604462  0.20534811  0.76393062     0.36520
N1007       N  0.65413084  0.04358969  0.79932773    -0.43730
N1008       N  0.56395747  0.23276060  0.75576988    -0.43730
C1009       C  0.44546398  0.11122947  0.78880277    -0.00140
C1010       C  0.42803981  0.10849128  0.75656566    -0.12020
C1011       C  0.40853407  0.13776250  0.74392612     0.02090
C1012       C  0.39843734  0.16549079  0.76810140    -0.00230
C1013       C  0.42145130  0.17194682  0.79566501    -0.11960
C1014       C  0.44716965  0.14623420  0.80420595     0.01980
H1015       H  0.43058568  0.08444546  0.74094405     0.14960
H1016       H  0.41910260  0.19638265  0.81055006     0.14960
C1017       C  0.47528086  0.15779709  0.82708841     0.36610
C1018       C  0.39853823  0.13801572  0.70681822     0.36520
N1019       N  0.49788849  0.16850842  0.84455454    -0.43730
N1020       N  0.39219085  0.13742553  0.67668062    -0.43730
C1021       C  0.67327333  0.13109356  0.88549756    -0.00140
C1022       C  0.63794654  0.14310454  0.88554507    -0.12020
C1023       C  0.60983421  0.11946605  0.89119790     0.02090
C1024       C  0.61617568  0.08236765  0.89303830    -0.00230
C1025       C  0.65154171  0.07010910  0.89058680    -0.11960
C1026       C  0.68003936  0.09419208  0.88841251     0.01980
H1027       H  0.63253615  0.17152515  0.88347630     0.14960
H1028       H  0.65690439  0.04169248  0.88923869     0.14960
C1029       C  0.71585574  0.08065425  0.88891328     0.36610
C1030       C  0.57451501  0.13388659  0.89409805     0.36520
N1031       N  0.74460893  0.06980864  0.88933130    -0.43730
N1032       N  0.54602298  0.14489234  0.89711216    -0.43730
C1033       C  0.41716272  0.08211042  0.87930507    -0.00140
C1034       C  0.42246600  0.11889173  0.88437666    -0.12020
C1035       C  0.39551522  0.14398571  0.87642881     0.02090
C1036       C  0.36080490  0.13206218  0.86889761    -0.00230
C1037       C  0.35574726  0.09636543  0.86191597    -0.11960
C1038       C  0.38389253  0.07212672  0.86389799     0.01980
H1039       H  0.44797259  0.12826127  0.89341592     0.14960
H1040       H  0.32953039  0.08751459  0.85419656     0.14960
C1041       C  0.37692884  0.04009666  0.84468877     0.36610
C1042       C  0.40316475  0.18174649  0.87935912     0.36520
N1043       N  0.36657779  0.01791040  0.82632645    -0.43730
N1044       N  0.40941694  0.21191665  0.88177037    -0.43730
C1045       C  0.66345354  0.21151940  0.96322734    -0.00140
C1046       C  0.62850348  0.21184368  0.95016765    -0.12020
C1047       C  0.59909350  0.20398518  0.97242711     0.02090
C1048       C  0.60372564  0.19679957  0.00934969    -0.00230
C1049       C  0.63874017  0.19758098  0.02253225    -0.11960
C1050       C  0.66817382  0.20451148  0.00000473     0.01980
H1051       H  0.62423288  0.21712289  0.92199505     0.14960
H1052       H  0.64293781  0.19460209  0.05106598     0.14960
C1053       C  0.70314629  0.20528958  0.01525712     0.36610
C1054       C  0.56414417  0.20581159  0.95706667     0.36520
N1055       N  0.73120984  0.20633510  0.02744865    -0.43730
N1056       N  0.53602777  0.20778823  0.94502409    -0.43730
C1057       C  0.40446986  0.20166519  0.01217262    -0.00140
C1058       C  0.37044656  0.21746763  0.01673019    -0.12020
C1059       C  0.34350425  0.21384906  0.99101075     0.02090
C1060       C  0.35029465  0.19420434  0.96008643    -0.00230
C1061       C  0.38207957  0.17382625  0.95966052    -0.11960
C1062       C  0.40938917  0.17838517  0.98381953     0.01980
H1063       H  0.36524503  0.23364621  0.03991666     0.14960
H1064       H  0.38634561  0.15376534  0.94023464     0.14960
C1065       C  0.44289390  0.16086426  0.97681752     0.36610
C1066       C  0.30821118  0.22614529  0.99910157     0.36520
N1067       N  0.46976045  0.14711124  0.97082386    -0.43730
N1068       N  0.27956493  0.23459409  0.00640132    -0.43730
C1069       C  0.44467640  0.29659226  0.17101236    -0.00140
C1070       C  0.44780090  0.28552230  0.20701455    -0.12020
C1071       C  0.41814105  0.28530426  0.23000888     0.02090
C1072       C  0.38424311  0.29254434  0.21597906    -0.00230
C1073       C  0.38112817  0.29839763  0.17886835    -0.11960
C1074       C  0.41096134  0.30576145  0.15810207     0.01980
H1075       H  0.47344316  0.27771066  0.21719540     0.14960
H1076       H  0.35522649  0.30393832  0.16755365     0.14960
C1077       C  0.40646216  0.32566611  0.12507396     0.36610
C1078       C  0.42317479  0.27849928  0.26766577     0.36520
N1079       N  0.40348779  0.34333748  0.09959494    -0.43730
N1080       N  0.42709952  0.27299366  0.29789365    -0.43730
C1081       C  0.34612916  0.20990963  0.19738956    -0.00140
C1082       C  0.38136490  0.20394604  0.20829043    -0.12020
C1083       C  0.40929662  0.20110764  0.18379100     0.02090
C1084       C  0.40322491  0.20715712  0.14720864    -0.00230
C1085       C  0.36816098  0.21470756  0.13611386    -0.11960
C1086       C  0.33963441  0.21518115  0.16074726     0.01980
H1087       H  0.38692984  0.20040149  0.23631207     0.14960
H1088       H  0.36321064  0.22101475  0.10822358     0.14960
C1089       C  0.30418452  0.22172623  0.14810909     0.36610
C1090       C  0.44436844  0.19345025  0.19698577     0.36520
N1091       N  0.27570550  0.22714525  0.13807318    -0.43730
N1092       N  0.47274226  0.18699479  0.20665336    -0.43730
C1093       C  0.67918335  0.20199260  0.19691772    -0.00140
C1094       C  0.68704318  0.23177533  0.17483029    -0.12020
C1095       C  0.66376569  0.24346938  0.14748592     0.02090
C1096       C  0.63016423  0.22699893  0.14363235    -0.00230
C1097       C  0.62355799  0.19609261  0.16385059    -0.11960
C1098       C  0.64775449  0.18259030  0.18848331     0.01980
H1099       H  0.71220204  0.24488816  0.17795502     0.14960
H1100       H  0.59921242  0.18131133  0.15981029     0.14960
C1101       C  0.63945394  0.14690217  0.20056620     0.36610
C1102       C  0.67669904  0.27013957  0.12250395     0.36520
N1103       N  0.63159994  0.11748602  0.20628701    -0.43730
N1104       N  0.68894833  0.29068622  0.10254763    -0.43730
C1105       C  0.62921321  0.31041051  0.92388127    -0.00140
C1106       C  0.64216003  0.31237143  0.95901780    -0.12020
C1107       C  0.61932796  0.31246715  0.98860173     0.02090
C1108       C  0.58287431  0.30723198  0.98387289    -0.00230
C1109       C  0.57002052  0.30424220  0.94863931    -0.11960
C1110       C  0.59268414  0.30654107  0.91882389     0.01980
H1111       H  0.67024129  0.31582618  0.96316382     0.14960
H1112       H  0.54231477  0.29839510  0.94448980     0.14960
C1113       C  0.57811282  0.30426643  0.88344474     0.36610
C1114       C  0.63384387  0.31843791  0.02341536     0.36520
N1115       N  0.56646017  0.30228532  0.85505352    -0.43730
N1116       N  0.64501850  0.32442207  0.05131867    -0.43730
C1117       C  0.66937185  0.12493380  0.28433277    -0.00140
C1118       C  0.67339621  0.08909217  0.27423832    -0.12020
C1119       C  0.64372487  0.06723281  0.26870511     0.02090
C1120       C  0.60910798  0.08045759  0.27457274    -0.00230
C1121       C  0.60508079  0.11645914  0.28368553    -0.11960
C1122       C  0.63448855  0.13870478  0.28811917     0.01980
H1123       H  0.69965133  0.07910799  0.26778021     0.14960
H1124       H  0.57870049  0.12716654  0.28792254     0.14960
C1125       C  0.62786713  0.17645783  0.29237576     0.36610
C1126       C  0.64908112  0.03332526  0.25179094     0.36520
N1127       N  0.62235667  0.20675311  0.29510577    -0.43730
N1128       N  0.65388537  0.00712361  0.23645960    -0.43730
C1129       C  0.41122870  0.08830928  0.27901313    -0.00140
C1130       C  0.37713909  0.07367531  0.27552518    -0.12020
C1131       C  0.34655656  0.09541166  0.27656208     0.02090
C1132       C  0.34958145  0.13243887  0.28258597    -0.00230
C1133       C  0.38365425  0.14682837  0.28644114    -0.11960
C1134       C  0.41405567  0.12557801  0.28291729     0.01980
H1135       H  0.37446815  0.04511718  0.27243778     0.14960
H1136       H  0.38658963  0.17531515  0.29048079     0.14960
C1137       C  0.44809536  0.14276847  0.28250843     0.36610
C1138       C  0.31226204  0.07923163  0.27209897     0.36520
N1139       N  0.47542112  0.15658824  0.28094324    -0.43730
N1140       N  0.28468961  0.06626955  0.26875281    -0.43730
C1141       C  0.44431787  0.12154728  0.38738867    -0.00140
C1142       C  0.45562239  0.15752271  0.38880595    -0.12020
C1143       C  0.43110318  0.18616807  0.38597436     0.02090
C1144       C  0.39541656  0.17934830  0.37730543    -0.00230
C1145       C  0.38549117  0.14363101  0.37289208    -0.11960
C1146       C  0.40811730  0.11524707  0.38155162     0.01980
H1147       H  0.48356062  0.16318518  0.39196156     0.14960
H1148       H  0.35873219  0.13793484  0.36562674     0.14960
C1149       C  0.39322061  0.07981031  0.38474930     0.36610
C1150       C  0.44298740  0.22224872  0.39150821     0.36520
N1151       N  0.38099854  0.05158525  0.38812181    -0.43730
N1152       N  0.45249328  0.25125041  0.39589517    -0.43730
C1153       C  0.71684656  0.17431253  0.47139724    -0.00140
C1154       C  0.71753248  0.14042562  0.45532990    -0.12020
C1155       C  0.71634966  0.10845390  0.47579777     0.02090
C1156       C  0.71560438  0.10947442  0.51346746    -0.00230
C1157       C  0.71796419  0.14349754  0.52931649    -0.11960
C1158       C  0.71713924  0.17548390  0.50889013     0.01980
H1159       H  0.71619712  0.13896193  0.42646336     0.14960
H1160       H  0.72111654  0.14518789  0.55793501     0.14960
C1161       C  0.71632182  0.20924935  0.52692996     0.36610
C1162       C  0.71528758  0.07517543  0.45714289     0.36520
N1163       N  0.71565605  0.23631887  0.54145261    -0.43730
N1164       N  0.71404136  0.04899530  0.44125208    -0.43730
C1165       C  0.62674629  0.16966592  0.40595378    -0.00140
C1166       C  0.60221757  0.17622219  0.37922409    -0.12020
C1167       C  0.57598317  0.15123345  0.37186903     0.02090
C1168       C  0.57640209  0.11642970  0.38842221    -0.00230
C1169       C  0.59846297  0.11108196  0.41754281    -0.11960
C1170       C  0.62152698  0.13824386  0.42810564     0.01980
H1171       H  0.60296011  0.20155302  0.36465298     0.14960
H1172       H  0.59725628  0.08595943  0.43249410     0.14960
C1173       C  0.63431010  0.13427108  0.46401061     0.36610
C1174       C  0.54878950  0.16320188  0.34767870     0.36520
N1175       N  0.64131742  0.13087080  0.49389819    -0.43730
N1176       N  0.52743556  0.17447766  0.32860176    -0.43730
C1177       C  0.56685688  0.29387951  0.18622769    -0.00140
C1178       C  0.59366046  0.31725704  0.17631264    -0.12020
C1179       C  0.62414492  0.32028629  0.19645299     0.02090
C1180       C  0.62705694  0.30416248  0.23118849    -0.00230
C1181       C  0.59859328  0.28275891  0.24290408    -0.11960
C1182       C  0.56921965  0.27654825  0.22043222     0.01980
H1183       H  0.59294103  0.33019216  0.15008869     0.14960
H1184       H  0.59926500  0.27084715  0.26946877     0.14960
C1185       C  0.54226946  0.25244812  0.23368360     0.36610
C1186       C  0.65238688  0.33702863  0.17675977     0.36520
N1187       N  0.52121789  0.23307708  0.24554554    -0.43730
N1188       N  0.67092559  0.34972120  0.15543815    -0.43730
C1189       C  0.60088267  0.92573249  0.29313988    -0.00140
C1190       C  0.63331333  0.94452314  0.29149868    -0.12020
C1191       C  0.66616770  0.92675495  0.29020302     0.02090
C1192       C  0.66752719  0.88927743  0.29291964    -0.00230
C1193       C  0.63540151  0.87039446  0.29669648    -0.11960
C1194       C  0.60240752  0.88792672  0.29595096     0.01980
H1195       H  0.63312615  0.97338056  0.29222869     0.14960
H1196       H  0.63612482  0.84147596  0.29898685     0.14960
C1197       C  0.57086598  0.86626132  0.29918575     0.36610
C1198       C  0.69826959  0.94739468  0.28628641     0.36520
N1199       N  0.54564991  0.84881738  0.30199537    -0.43730
N1200       N  0.72406762  0.96388864  0.28319534    -0.43730
C1201       C  0.37283457  0.89362297  0.27641744    -0.00140
C1202       C  0.36002078  0.92519225  0.29100669    -0.12020
C1203       C  0.38230324  0.95487975  0.29463356     0.02090
C1204       C  0.41817060  0.95392166  0.28189188    -0.00230
C1205       C  0.42983524  0.92359000  0.26484946    -0.11960
C1206       C  0.40876636  0.89316494  0.26386013     0.01980
H1207       H  0.33262526  0.92655558  0.29993418     0.14960
H1208       H  0.45742167  0.92193510  0.25639856     0.14960
C1209       C  0.42836707  0.86194414  0.25394886     0.36610
C1210       C  0.36768909  0.98482891  0.31358924     0.36520
N1211       N  0.44956413  0.84073497  0.24694013    -0.43730
N1212       N  0.35496852  0.00797997  0.32932444    -0.43730
C1213       C  0.61677564  0.82099026  0.15831889    -0.00140
C1214       C  0.65226877  0.82463475  0.14626267    -0.12020
C1215       C  0.68070933  0.82318143  0.16999328     0.02090
C1216       C  0.67415675  0.81787021  0.20657296    -0.00230
C1217       C  0.63882541  0.81552447  0.21880162    -0.11960
C1218       C  0.61025225  0.81822515  0.19533667     0.01980
H1219       H  0.65799875  0.82690367  0.11787489     0.14960
H1220       H  0.63354888  0.81257353  0.24710867     0.14960
C1221       C  0.57480871  0.81750152  0.21010298     0.36610
C1222       C  0.71638803  0.82699020  0.15632461     0.36520
N1223       N  0.54646705  0.81725018  0.22216003    -0.43730
N1224       N  0.74500551  0.82998151  0.14535174    -0.43730
C1225       C  0.42289086  0.81099738  0.15504495    -0.00140
C1226       C  0.42248385  0.79450865  0.18889253    -0.12020
C1227       C  0.39259472  0.79411126  0.21013376     0.02090
C1228       C  0.36022889  0.80766250  0.19667929    -0.00230
C1229       C  0.35949000  0.82165210  0.16147802    -0.11960
C1230       C  0.39082688  0.82457273  0.14104609     0.01980
H1231       H  0.44650303  0.78327703  0.20033556     0.14960
H1232       H  0.33546411  0.83440789  0.15182376     0.14960
C1233       C  0.39000378  0.84494017  0.10800156     0.36610
C1234       C  0.39903895  0.78629179  0.24747648     0.36520
N1235       N  0.38951048  0.86209592  0.08196974    -0.43730
N1236       N  0.40700962  0.78132388  0.27698143    -0.43730
C1237       C  0.58716801  0.72680181  0.19273953    -0.00140
C1238       C  0.57599399  0.72289155  0.22873555    -0.12020
C1239       C  0.60056396  0.72073899  0.25634316     0.02090
C1240       C  0.63660179  0.72418003  0.24820589    -0.00230
C1241       C  0.64750210  0.73089197  0.21286504    -0.11960
C1242       C  0.62356460  0.72971163  0.18492777     0.01980
H1243       H  0.54800803  0.72212833  0.23545000     0.14960
H1244       H  0.67548607  0.73410714  0.20713996     0.14960
C1245       C  0.63723624  0.73147135  0.14879924     0.36610
C1246       C  0.58854109  0.71549659  0.29271881     0.36520
N1247       N  0.64840622  0.73217220  0.11990991    -0.43730
N1248       N  0.57900331  0.71166605  0.32198241    -0.43730
C1249       C  0.70604543  0.90701822  0.51269211    -0.00140
C1250       C  0.70105448  0.87202282  0.52639454    -0.12020
C1251       C  0.70230981  0.84228740  0.50396561     0.02090
C1252       C  0.71069833  0.84716309  0.46754164    -0.00230
C1253       C  0.71618465  0.88194819  0.45410710    -0.11960
C1254       C  0.71251091  0.91162723  0.47575662     0.01980
H1255       H  0.69738645  0.86780578  0.55477797     0.14960
H1256       H  0.72188794  0.88600696  0.42592626     0.14960
C1257       C  0.71762524  0.94635177  0.45927781     0.36610
C1258       C  0.69546593  0.80706181  0.51875762     0.36520
N1259       N  0.72217296  0.97377983  0.44527252    -0.43730
N1260       N  0.69004911  0.77877025  0.53061692    -0.43730
C1261       C  0.63915608  0.85966750  0.38300586    -0.00140
C1262       C  0.65805393  0.89195201  0.37909959    -0.12020
C1263       C  0.64099187  0.92547308  0.37892832     0.02090
C1264       C  0.60352027  0.92765846  0.38134631    -0.00230
C1265       C  0.58457834  0.89515716  0.38536815    -0.11960
C1266       C  0.60200559  0.86166205  0.38672601     0.01980
H1267       H  0.68667386  0.89097973  0.37686215     0.14960
H1268       H  0.55587261  0.89572325  0.38681334     0.14960
C1269       C  0.58124230  0.82954059  0.39140681     0.36610
C1270       C  0.66291114  0.95696217  0.37518631     0.36520
N1271       N  0.56459380  0.80373349  0.39498111    -0.43730
N1272       N  0.68054744  0.98213409  0.37194092    -0.43730
C1273       C  0.72521828  0.57298193  0.19109553    -0.00140
C1274       C  0.71064157  0.60488175  0.17767049    -0.12020
C1275       C  0.70943675  0.63568340  0.19849093     0.02090
C1276       C  0.71782030  0.63410407  0.23532775    -0.00230
C1277       C  0.73071605  0.60224817  0.24949005    -0.11960
C1278       C  0.73670530  0.57275252  0.22767867     0.01980
H1279       H  0.70431294  0.60718890  0.14952071     0.14960
H1280       H  0.73781618  0.60103502  0.27753361     0.14960
C1281       C  0.75895999  0.54595848  0.24408062     0.36610
C1282       C  0.70584311  0.66928244  0.17965294     0.36520
N1283       N  0.77825882  0.52814161  0.26043619    -0.43730
N1284       N  0.70555227  0.69531774  0.16254824    -0.43730
C1285       C  0.71358935  0.42333446  0.16757171    -0.00140
C1286       C  0.73069851  0.39042639  0.17002843    -0.12020
C1287       C  0.72900204  0.36991161  0.20103078     0.02090
C1288       C  0.71401834  0.38430422  0.23250318    -0.00230
C1289       C  0.69959161  0.41909307  0.23090724    -0.11960
C1290       C  0.69863364  0.43842268  0.19843899     0.01980
H1291       H  0.74358742  0.37938488  0.14658048     0.14960
H1292       H  0.68648286  0.42982129  0.25427689     0.14960
C1293       C  0.68188401  0.47316430  0.19728121     0.36610
C1294       C  0.73593372  0.33241576  0.19608340     0.36520
N1295       N  0.66826347  0.50094583  0.19645890    -0.43730
N1296       N  0.74090889  0.30281324  0.18907849    -0.43730
C1297       C  0.70763144  0.39487869  0.92430529    -0.00140
C1298       C  0.71373061  0.38079754  0.95875639    -0.12020
C1299       C  0.71440247  0.40269013  0.98879855     0.02090
C1300       C  0.71193388  0.44033250  0.98483405    -0.00230
C1301       C  0.70584243  0.45458116  0.95027228    -0.11960
C1302       C  0.70220995  0.43216325  0.92052331     0.01980
H1303       H  0.71721431  0.35218932  0.96234304     0.14960
H1304       H  0.70495274  0.48338074  0.94634641     0.14960
C1305       C  0.69412965  0.44795896  0.88612708     0.36610
C1306       C  0.71842219  0.38546758  0.02333497     0.36520
N1307       N  0.68764622  0.46055338  0.85847698    -0.43730
N1308       N  0.72126369  0.37081113  0.05066277    -0.43730
C1309       C  0.81325739  0.67547423  0.20066327    -0.00140
C1310       C  0.82325650  0.63942628  0.20579805    -0.12020
C1311       C  0.81731245  0.61348653  0.18045070     0.02090
C1312       C  0.79914055  0.62259340  0.14881266    -0.00230
C1313       C  0.78803143  0.65857432  0.14367725    -0.11960
C1314       C  0.79544852  0.68503290  0.16907710     0.01980
H1315       H  0.83721469  0.63143656  0.22958392     0.14960
H1316       H  0.77360667  0.66610500  0.11976562     0.14960
C1317       C  0.78527640  0.72165659  0.16201724     0.36610
C1318       C  0.82997687  0.57772418  0.18858392     0.36520
N1319       N  0.77705162  0.75107871  0.15651415    -0.43730
N1320       N  0.84042574  0.54929072  0.19546814    -0.43730
C1321       C  0.82222844  0.42098930  0.16415159    -0.00140
C1322       C  0.83663458  0.38927368  0.15017905    -0.12020
C1323       C  0.83588195  0.35659554  0.16987701     0.02090
C1324       C  0.81985228  0.35471740  0.20417305    -0.00230
C1325       C  0.80711045  0.38659629  0.21860241    -0.11960
C1326       C  0.80754089  0.41890231  0.19897025     0.01980
H1327       H  0.84714683  0.38973016  0.12315526     0.14960
H1328       H  0.79603468  0.38612757  0.24544971     0.14960
C1329       C  0.78689576  0.44750038  0.21312902     0.36610
C1330       C  0.85193939  0.32522003  0.15465241     0.36520
N1331       N  0.76811247  0.46881302  0.22456992    -0.43730
N1332       N  0.86481265  0.29997852  0.14258766    -0.43730
C1333       C  0.93064328  0.59532328  0.27485700    -0.00140
C1334       C  0.89543779  0.59560698  0.28736052    -0.12020
C1335       C  0.87606673  0.62728054  0.29017396     0.02090
C1336       C  0.89193411  0.66062626  0.28115607    -0.00230
C1337       C  0.92687093  0.66041016  0.26762554    -0.11960
C1338       C  0.94587719  0.62822821  0.26363160     0.01980
H1339       H  0.88277263  0.57061455  0.29529832     0.14960
H1340       H  0.93842254  0.68530527  0.25785004     0.14960
C1341       C  0.97974594  0.62965335  0.24565280     0.36610
C1342       C  0.83875690  0.62350419  0.29831789     0.36520
N1343       N  0.00628923  0.63088876  0.23002489    -0.43730
N1344       N  0.80887520  0.61867278  0.30362006    -0.43730
C1345       C  0.94003412  0.40888498  0.28846225    -0.00140
C1346       C  0.95209528  0.37290887  0.28896230    -0.12020
C1347       C  0.92861768  0.34399340  0.28905808     0.02090
C1348       C  0.89205497  0.35029138  0.28827118    -0.00230
C1349       C  0.87974869  0.38600402  0.28634309    -0.11960
C1350       C  0.90321699  0.41515004  0.28624833     0.01980
H1351       H  0.98015994  0.36706450  0.29104828     0.14960
H1352       H  0.85153624  0.39103422  0.28397988     0.14960
C1353       C  0.88859601  0.45087422  0.28486338     0.36610
C1354       C  0.94255212  0.30798108  0.28988703     0.36520
N1355       N  0.87666003  0.47943563  0.28367166    -0.43730
N1356       N  0.95363814  0.27907523  0.29067857    -0.43730
C1357       C  0.09414039  0.43342052  0.38971932    -0.00140
C1358       C  0.09363372  0.39654433  0.38306130    -0.12020
C1359       C  0.12494374  0.37666640  0.37931648     0.02090
C1360       C  0.15836779  0.39262527  0.38549761    -0.00230
C1361       C  0.15912715  0.42931756  0.39244056    -0.11960
C1362       C  0.12787880  0.44999566  0.39246471     0.01980
H1363       H  0.06846866  0.38344816  0.37847341     0.14960
H1364       H  0.18450771  0.44207812  0.39667522     0.14960
C1365       C  0.13244039  0.48802125  0.38885128     0.36610
C1366       C  0.12135044  0.34034071  0.36751136     0.36520
N1367       N  0.13789038  0.51804011  0.38343371    -0.43730
N1368       N  0.11666384  0.31140344  0.35810357    -0.43730
C1369       C  0.13562165  0.36937601  0.28913732    -0.00140
C1370       C  0.10056911  0.37022075  0.27638548    -0.12020
C1371       C  0.08083429  0.40226837  0.27551601     0.02090
C1372       C  0.09537977  0.43380198  0.28968781    -0.00230
C1373       C  0.13006789  0.43245140  0.30265639    -0.11960
C1374       C  0.15039027  0.40154256  0.30161685     0.01980
H1375       H  0.08994211  0.34661042  0.26391190     0.14960
H1376       H  0.14230498  0.45646354  0.31276786     0.14960
C1377       C  0.18783370  0.40629496  0.30804359     0.36610
C1378       C  0.04736880  0.40251254  0.25721419     0.36520
N1379       N  0.21757149  0.41284520  0.31175120    -0.43730
N1380       N  0.02108009  0.40265699  0.24149615    -0.43730
C1381       C  0.10675358  0.60451137  0.28586132    -0.00140
C1382       C  0.08854564  0.63562328  0.27456990    -0.12020
C1383       C  0.10553297  0.66906165  0.27245644     0.02090
C1384       C  0.14119465  0.67217689  0.28277758    -0.00230
C1385       C  0.15878538  0.64134651  0.29536388    -0.11960
C1386       C  0.14239361  0.60784489  0.29641175     0.01980
H1387       H  0.06066440  0.63411319  0.26863287     0.14960
H1388       H  0.18636035  0.64303907  0.30235805     0.14960
C1389       C  0.16311818  0.57713832  0.30771244     0.36610
C1390       C  0.08607796  0.69985417  0.25949728     0.36520
N1391       N  0.17982025  0.55255926  0.31655964    -0.43730
N1392       N  0.07045549  0.72460003  0.24919854    -0.43730
C1393       C  0.92632400  0.59736637  0.38003898    -0.00140
C1394       C  0.89524336  0.57784828  0.38792779    -0.12020
C1395       C  0.86204954  0.59492428  0.38950816     0.02090
C1396       C  0.85941935  0.63200895  0.38247507    -0.00230
C1397       C  0.89055652  0.65143684  0.37509588    -0.11960
C1398       C  0.92363546  0.63478786  0.37434462     0.01980
H1399       H  0.89662326  0.54907866  0.39179225     0.14960
H1400       H  0.88926476  0.68033259  0.37218199     0.14960
C1401       C  0.95448563  0.65702606  0.36816729     0.36610
C1402       C  0.83108541  0.57411584  0.39885074     0.36520
N1403       N  0.97915564  0.67483324  0.36316299    -0.43730
N1404       N  0.80626733  0.55738079  0.40635726    -0.43730
C1405       C  0.21908320  0.67140340  0.19703062    -0.00140
C1406       C  0.21886992  0.68265608  0.16128613    -0.12020
C1407       C  0.21813795  0.65757865  0.13384986     0.02090
C1408       C  0.21312269  0.62046548  0.14186893    -0.00230
C1409       C  0.21179004  0.60966307  0.17783648    -0.11960
C1410       C  0.21697897  0.63428741  0.20499830     0.01980
H1411       H  0.22026748  0.71103590  0.15483412     0.14960
H1412       H  0.21145390  0.58130095  0.18466427     0.14960
C1413       C  0.22393065  0.62026716  0.24036101     0.36610
C1414       C  0.22678588  0.67052295  0.09829340     0.36520
N1415       N  0.23134705  0.60790780  0.26785873    -0.43730
N1416       N  0.23479682  0.68159093  0.07031947    -0.43730
C1417       C  0.21249031  0.37668595  0.20053756    -0.00140
C1418       C  0.22513105  0.36316980  0.16825853    -0.12020
C1419       C  0.22576655  0.38488147  0.13710073     0.02090
C1420       C  0.21168073  0.42044577  0.13739657    -0.00230
C1421       C  0.19600048  0.43226354  0.16841471    -0.11960
C1422       C  0.19854492  0.41234815  0.19996908     0.01980
H1423       H  0.23465809  0.33578692  0.16739075     0.14960
H1424       H  0.18641942  0.45970884  0.16938144     0.14960
C1425       C  0.19030100  0.43299643  0.23076403     0.36610
C1426       C  0.24263993  0.37048777  0.10570902     0.36520
N1427       N  0.18432511  0.45509191  0.25118618    -0.43730
N1428       N  0.25639926  0.35872548  0.08079119    -0.43730
C1429       C  0.31720391  0.45846130  0.18605727    -0.00140
C1430       C  0.35010453  0.44173223  0.18871900    -0.12020
C1431       C  0.35650086  0.41741452  0.21710165     0.02090
C1432       C  0.32737742  0.40359782  0.23824107    -0.00230
C1433       C  0.29696241  0.42477391  0.23964886    -0.11960
C1434       C  0.29347153  0.45421164  0.21601634     0.01980
H1435       H  0.37038862  0.44703672  0.16866995     0.14960
H1436       H  0.27561878  0.41792372  0.25803334     0.14960
C1437       C  0.26613694  0.48018653  0.22372101     0.36610
C1438       C  0.39234662  0.40424690  0.22153632     0.36520
N1439       N  0.24510507  0.50187407  0.22985107    -0.43730
N1440       N  0.42088690  0.39328456  0.22474867    -0.43730
C1441       C  0.43283452  0.70892470  0.16466603    -0.00140
C1442       C  0.39638965  0.71664112  0.16359586    -0.12020
C1443       C  0.37511939  0.71487616  0.19429050     0.02090
C1444       C  0.38989023  0.70472997  0.22767635    -0.00230
C1445       C  0.42558992  0.69383723  0.22829841    -0.11960
C1446       C  0.44698528  0.69561360  0.19728644     0.01980
H1447       H  0.38452386  0.72621205  0.13889955     0.14960
H1448       H  0.43662557  0.68338115  0.25303459     0.14960
C1449       C  0.48276635  0.68218029  0.19955882     0.36610
C1450       C  0.33845173  0.72502291  0.19006718     0.36520
N1451       N  0.51117130  0.67057211  0.20133702    -0.43730
N1452       N  0.30945573  0.73370771  0.18481059    -0.43730
C1453       C  0.31816174  0.58720910  0.18104554    -0.00140
C1454       C  0.32106617  0.57054018  0.21503910    -0.12020
C1455       C  0.31908541  0.59068359  0.24653829     0.02090
C1456       C  0.31088010  0.62752656  0.24455902    -0.00230
C1457       C  0.30516921  0.64303299  0.21077768    -0.11960
C1458       C  0.31125022  0.62423884  0.17949342     0.01980
H1459       H  0.32423883  0.54171666  0.21694804     0.14960
H1460       H  0.29874730  0.67105786  0.20894680     0.14960
C1461       C  0.31000637  0.64398468  0.14610809     0.36610
C1462       C  0.32492182  0.57319861  0.28061024     0.36520
N1463       N  0.30941755  0.66077917  0.11988050    -0.43730
N1464       N  0.32941926  0.55919107  0.30802114    -0.43730
C1465       C  0.09131895  0.61348506  0.38876059    -0.00140
C1466       C  0.09557735  0.64709721  0.37205276    -0.12020
C1467       C  0.12809060  0.66502020  0.37197207     0.02090
C1468       C  0.15893696  0.64790462  0.38575260    -0.00230
C1469       C  0.15405069  0.61498331  0.40425093    -0.11960
C1470       C  0.12032615  0.59923430  0.40793115     0.01980
H1471       H  0.07313308  0.65963347  0.35882065     0.14960
H1472       H  0.17622962  0.60295510  0.41832703     0.14960
C1473       C  0.11565098  0.57048795  0.43377165     0.36610
C1474       C  0.12699720  0.70203582  0.36055895     0.36520
N1475       N  0.11190589  0.54772738  0.45483911    -0.43730
N1476       N  0.12334131  0.73180471  0.35227666    -0.43730
C1477       C  0.66644879  0.80951514  0.96737522    -0.00140
C1478       C  0.63525294  0.80123237  0.94932395    -0.12020
C1479       C  0.60168340  0.80425064  0.96511420     0.02090
C1480       C  0.59815319  0.81430353  0.00133084    -0.00230
C1481       C  0.62947851  0.82287335  0.01976966    -0.11960
C1482       C  0.66313739  0.82129504  0.00294279     0.01980
H1483       H  0.63735117  0.79272319  0.92206942     0.14960
H1484       H  0.62785763  0.83049195  0.04750778     0.14960
C1485       C  0.69395474  0.83233341  0.02239267     0.36610
C1486       C  0.57155402  0.79679943  0.94286650     0.36520
N1487       N  0.71869979  0.84123960  0.03796117    -0.43730
N1488       N  0.54773336  0.79062737  0.92470954    -0.43730
C1489       C  0.66016654  0.88363674  0.88794557    -0.00140
C1490       C  0.66017119  0.91868187  0.90111339    -0.12020
C1491       C  0.62888379  0.93898173  0.90296521     0.02090
C1492       C  0.59688759  0.92546317  0.88930482    -0.00230
C1493       C  0.59639588  0.89024938  0.87737594    -0.11960
C1494       C  0.62708497  0.86914237  0.87726029     0.01980
H1495       H  0.68436555  0.92936514  0.91214435     0.14960
H1496       H  0.57209324  0.87945392  0.86663351     0.14960
C1497       C  0.62230341  0.83255333  0.86690215     0.36610
C1498       C  0.62954916  0.97242568  0.92159787     0.36520
N1499       N  0.61574170  0.80360686  0.85866327    -0.43730
N1500       N  0.62973242  0.99859785  0.93763978    -0.43730
C1501       C  0.34235540  0.80984479  0.95666101    -0.00140
C1502       C  0.37733184  0.80970981  0.94328520    -0.12020
C1503       C  0.40639758  0.81094596  0.96610506     0.02090
C1504       C  0.40064032  0.81052411  0.00326606    -0.00230
C1505       C  0.36528755  0.81096823  0.01636502    -0.11960
C1506       C  0.33641206  0.81051720  0.99345301     0.01980
H1507       H  0.38186961  0.80953523  0.91474652     0.14960
H1508       H  0.35993646  0.80963965  0.04482323     0.14960
C1509       C  0.30091233  0.80984159  0.00811387     0.36610
C1510       C  0.44150483  0.81170602  0.95059525     0.36520
N1511       N  0.27241652  0.80893650  0.01975075    -0.43730
N1512       N  0.46960578  0.81258182  0.93802877    -0.43730
C1513       C  0.34055137  0.89134692  0.87568155    -0.00140
C1514       C  0.37429350  0.87608806  0.87032179    -0.12020
C1515       C  0.40491148  0.89707868  0.86967090     0.02090
C1516       C  0.40190303  0.93449746  0.87113538    -0.00230
C1517       C  0.36837634  0.94968557  0.87779178    -0.11960
C1518       C  0.33786958  0.92843689  0.88043031     0.01980
H1519       H  0.37683080  0.84736498  0.86815807     0.14960
H1520       H  0.36603098  0.97819824  0.88122715     0.14960
C1521       C  0.30411078  0.94505400  0.88781442     0.36610
C1522       C  0.43899497  0.87953793  0.86839934     0.36520
N1523       N  0.27695148  0.95828125  0.89360241    -0.43730
N1524       N  0.46626053  0.86528283  0.86826309    -0.43730
C1525       C  0.21067528  0.60099180  0.00306297    -0.00140
C1526       C  0.22340653  0.59862312  0.96799924    -0.12020
C1527       C  0.22093699  0.62761771  0.94406368     0.02090
C1528       C  0.20784968  0.66107604  0.95579800    -0.00230
C1529       C  0.19305981  0.66260486  0.99042322    -0.11960
C1530       C  0.19334560  0.63248037  0.01345122     0.01980
H1531       H  0.23628218  0.57417224  0.95950215     0.14960
H1532       H  0.17939013  0.68670152  0.99862232     0.14960
C1533       C  0.17338498  0.63319731  0.04641409     0.36610
C1534       C  0.22830596  0.62063123  0.90694728     0.36520
N1535       N  0.15663279  0.63357547  0.07242961    -0.43730
N1536       N  0.23307931  0.61367428  0.87729400    -0.43730
C1537       C  0.22422219  0.36581354  0.95055887    -0.00140
C1538       C  0.21097081  0.36652199  0.98588423    -0.12020
C1539       C  0.21144968  0.39823355  0.00558906     0.02090
C1540       C  0.22654759  0.42946744  0.99038402    -0.00230
C1541       C  0.23898111  0.42894483  0.95549580    -0.11960
C1542       C  0.23777297  0.39829741  0.93558200     0.01980
H1543       H  0.19742246  0.34316866  0.99682526     0.14960
H1544       H  0.25130861  0.45271478  0.94377327     0.14960
C1545       C  0.25272043  0.40299836  0.90054487     0.36610
C1546       C  0.19196541  0.39943591  0.03877961     0.36520
N1547       N  0.26819165  0.41096350  0.87479841    -0.43730
N1548       N  0.17509380  0.40034403  0.06468071    -0.43730
C1549       C  0.91605520  0.42763506  0.77285478    -0.00140
C1550       C  0.88434779  0.44517905  0.76303452    -0.12020
C1551       C  0.85242163  0.42643370  0.76048725     0.02090
C1552       C  0.85158703  0.38960572  0.76875107    -0.00230
C1553       C  0.88352821  0.37178956  0.77692539    -0.11960
C1554       C  0.91568881  0.39028042  0.77824349     0.01980
H1555       H  0.88415491  0.47406156  0.75947310     0.14960
H1556       H  0.88333147  0.34316459  0.78201630     0.14960
C1557       C  0.94749157  0.37060512  0.78703958     0.36610
C1558       C  0.82051184  0.44564978  0.75105142     0.36520
N1559       N  0.97298173  0.35467590  0.79379859    -0.43730
N1560       N  0.79484703  0.46101162  0.74366568    -0.43730
C1561       C  0.10686269  0.43085406  0.77913584    -0.00140
C1562       C  0.13741399  0.44930883  0.76695009    -0.12020
C1563       C  0.17010468  0.43151053  0.76289932     0.02090
C1564       C  0.17319661  0.39510811  0.77308643    -0.00230
C1565       C  0.14263323  0.37702853  0.78449693    -0.11960
C1566       C  0.10964778  0.39369900  0.78636357     0.01980
H1567       H  0.13597790  0.47782837  0.76132484     0.14960
H1568       H  0.14485424  0.34947044  0.79238542     0.14960
C1569       C  0.07999056  0.37203172  0.79826690     0.36610
C1570       C  0.20032119  0.45114072  0.74929232     0.36520
N1571       N  0.05647428  0.35441204  0.80787572    -0.43730
N1572       N  0.22460297  0.46688312  0.73842463    -0.43730
C1573       C  0.06995957  0.61619234  0.87717134    -0.00140
C1574       C  0.06365513  0.65287543  0.86892218    -0.12020
C1575       C  0.09125252  0.67788030  0.86738420     0.02090
C1576       C  0.12591546  0.66657864  0.87427258    -0.00230
C1577       C  0.13220707  0.63023881  0.88277818    -0.11960
C1578       C  0.10463895  0.60556899  0.88592408     0.01980
H1579       H  0.03715098  0.66201158  0.86235499     0.14960
H1580       H  0.15864576  0.62175660  0.89010539     0.14960
C1581       C  0.11272634  0.57095226  0.90141608     0.36610
C1582       C  0.08360103  0.71481898  0.85850645     0.36520
N1583       N  0.12035335  0.54422834  0.91546630    -0.43730
N1584       N  0.07765555  0.74442141  0.85110342    -0.43730
C1585       C  0.09680726  0.43427066  0.87607432    -0.00140
C1586       C  0.13098306  0.43525493  0.86182050    -0.12020
C1587       C  0.15221565  0.40491488  0.86069861     0.02090
C1588       C  0.13916308  0.37097177  0.87193100    -0.00230
C1589       C  0.10475566  0.37011105  0.88740469    -0.11960
C1590       C  0.08411949  0.40163888  0.89049605     0.01980
H1591       H  0.14157401  0.46030187  0.85120538     0.14960
H1592       H  0.09553629  0.34555592  0.90019904     0.14960
C1593       C  0.05323588  0.40142916  0.91339080     0.36610
C1594       C  0.18736929  0.41119518  0.84744873     0.36520
N1595       N  0.02908258  0.40203481  0.93262463    -0.43730
N1596       N  0.21345045  0.42036571  0.83382949    -0.43730
C1597       C  0.10550829  0.59149867  0.77566875    -0.00140
C1598       C  0.13902247  0.57515417  0.77105892    -0.12020
C1599       C  0.17014558  0.59544149  0.76977500     0.02090
C1600       C  0.16812304  0.63259807  0.77369653    -0.00230
C1601       C  0.13477756  0.64886153  0.77841774    -0.11960
C1602       C  0.10359069  0.62889524  0.77805084     0.01980
H1603       H  0.14099635  0.54620637  0.77036656     0.14960
H1604       H  0.13309138  0.67755850  0.78122944     0.14960
C1605       C  0.07012261  0.64727145  0.78126069     0.36610
C1606       C  0.20393146  0.57769708  0.76592670     0.36520
N1607       N  0.04323093  0.66199353  0.78353434    -0.43730
N1608       N  0.23112031  0.56355199  0.76325116    -0.43730
C1609       C  0.30714058  0.85207109  0.69527074    -0.00140
C1610       C  0.30363729  0.88744681  0.70669260    -0.12020
C1611       C  0.31320115  0.91584488  0.68425176     0.02090
C1612       C  0.31795054  0.91020030  0.64776498    -0.00230
C1613       C  0.32178722  0.87503617  0.63596598    -0.11960
C1614       C  0.31684152  0.84586150  0.65957205     0.01980
H1615       H  0.29885961  0.89235182  0.73465889     0.14960
H1616       H  0.32881201  0.87066040  0.60841856     0.14960
C1617       C  0.32161199  0.80992170  0.64697282     0.36610
C1618       C  0.32477101  0.94872946  0.69980335     0.36520
N1619       N  0.32504250  0.78100237  0.63693254    -0.43730
N1620       N  0.33676700  0.97381415  0.71267260    -0.43730
C1621       C  0.38901020  0.85760543  0.78072085    -0.00140
C1622       C  0.42405581  0.84544061  0.77995483    -0.12020
C1623       C  0.45273153  0.86947994  0.78087989     0.02090
C1624       C  0.44702984  0.90735104  0.77987212    -0.00230
C1625       C  0.41174524  0.91926410  0.77770798    -0.11960
C1626       C  0.38314378  0.89511513  0.78024829     0.01980
H1627       H  0.42905976  0.81687296  0.77899522     0.14960
H1628       H  0.40617666  0.94768350  0.77714761     0.14960
C1629       C  0.34806311  0.90971048  0.78528937     0.36610
C1630       C  0.48749181  0.85378561  0.78492597     0.36520
N1631       N  0.32039854  0.92203587  0.79067313    -0.43730
N1632       N  0.51479401  0.84017334  0.78894087    -0.43730
C1633       C  0.38957238  0.71883980  0.91318494    -0.00140
C1634       C  0.37696791  0.72080024  0.94856155    -0.12020
C1635       C  0.40007716  0.71909630  0.97756486     0.02090
C1636       C  0.43694372  0.71835338  0.97127362    -0.00230
C1637       C  0.44931040  0.71713171  0.93549642    -0.11960
C1638       C  0.42604242  0.71693967  0.90676170     0.01980
H1639       H  0.34868843  0.72210858  0.95350234     0.14960
H1640       H  0.47742641  0.71782366  0.92959526     0.14960
C1641       C  0.44000441  0.71506344  0.87083992     0.36610
C1642       C  0.38505455  0.71861463  0.01312561     0.36520
N1643       N  0.45110360  0.71374691  0.84199516    -0.43730
N1644       N  0.37274767  0.71802055  0.04154019    -0.43730
C1645       C  0.31678000  0.63100676  0.91880746    -0.00140
C1646       C  0.31873509  0.64356637  0.95396569    -0.12020
C1647       C  0.32434049  0.62033326  0.98317480     0.02090
C1648       C  0.32538300  0.58308115  0.97827356    -0.00230
C1649       C  0.32198564  0.57041128  0.94305276    -0.11960
C1650       C  0.31890290  0.59396064  0.91348530     0.01980
H1651       H  0.31713387  0.67200324  0.95846002     0.14960
H1652       H  0.31990439  0.54192599  0.93872587     0.14960
C1653       C  0.31688050  0.57963236  0.87805896     0.36610
C1654       C  0.32707627  0.63537914  0.01819580     0.36520
N1655       N  0.31503828  0.56821256  0.84961304    -0.43730
N1656       N  0.32952529  0.64732565  0.04632412    -0.43730
C1657       C  0.09628858  0.71589545  0.66366657    -0.00140
C1658       C  0.12759854  0.70884268  0.64414980    -0.12020
C1659       C  0.16093674  0.70809728  0.66088271     0.02090
C1660       C  0.16355089  0.71475968  0.69770277    -0.00230
C1661       C  0.13232349  0.72160738  0.71703538    -0.11960
C1662       C  0.09912339  0.72155072  0.70082557     0.01980
H1663       H  0.12633358  0.70537282  0.61554674     0.14960
H1664       H  0.13376088  0.72606638  0.74544307     0.14960
C1665       C  0.06837515  0.72791542  0.72313858     0.36610
C1666       C  0.19229316  0.70149237  0.63971986     0.36520
N1667       N  0.04372184  0.73335548  0.74083094    -0.43730
N1668       N  0.21751037  0.69656297  0.62270082    -0.43730
C1669       C  0.11804778  0.71757243  0.50930131    -0.00140
C1670       C  0.15319016  0.71445468  0.52208448    -0.12020
C1671       C  0.18248592  0.71710820  0.49901185     0.02090
C1672       C  0.17722724  0.72341287  0.46241995    -0.00230
C1673       C  0.14227547  0.72625857  0.44977007    -0.11960
C1674       C  0.11293355  0.72154259  0.47232966     0.01980
H1675       H  0.15789455  0.71149082  0.55052990     0.14960
H1676       H  0.13804294  0.72994034  0.42155831     0.14960
C1677       C  0.07817244  0.72050994  0.45664052     0.36610
C1678       C  0.21774650  0.71331382  0.51325111     0.36520
N1679       N  0.05047041  0.71902171  0.44372988    -0.43730
N1680       N  0.24607721  0.71049304  0.52460496    -0.43730
C1681       C  0.86579359  0.70649566  0.46167924    -0.00140
C1682       C  0.89517081  0.72220864  0.44431312    -0.12020
C1683       C  0.92868461  0.72328493  0.46033460     0.02090
C1684       C  0.93404620  0.70798144  0.49490872    -0.00230
C1685       C  0.90533580  0.68980852  0.51101464    -0.11960
C1686       C  0.87136133  0.69008920  0.49553490     0.01980
H1687       H  0.89238154  0.73243748  0.41723988     0.14960
H1688       H  0.90926869  0.67588367  0.53623155     0.14960
C1689       C  0.84245408  0.67324256  0.51484307     0.36610
C1690       C  0.95716137  0.73945269  0.43977229     0.36520
N1691       N  0.81918459  0.65993175  0.53035556    -0.43730
N1692       N  0.97962553  0.75257764  0.42292443    -0.43730
C1693       C  0.09400530  0.81721634  0.66520248    -0.00140
C1694       C  0.07500763  0.82323864  0.69723999    -0.12020
C1695       C  0.09156059  0.82034344  0.73094831     0.02090
C1696       C  0.12776952  0.81103873  0.73342572    -0.00230
C1697       C  0.14631311  0.80427832  0.70170124    -0.11960
C1698       C  0.13031385  0.80761207  0.66819986     0.01980
H1699       H  0.04684492  0.82893972  0.69614616     0.14960
H1700       H  0.17421477  0.79746381  0.70299967     0.14960
C1701       C  0.15262629  0.80075801  0.63767480     0.36610
C1702       C  0.07076618  0.82586304  0.76284966     0.36520
N1703       N  0.17191397  0.79467483  0.61441623    -0.43730
N1704       N  0.05407646  0.82981077  0.78854309    -0.43730
C1705       C  0.20158961  0.89219882  0.74301962    -0.00140
C1706       C  0.20286868  0.87904136  0.70827729    -0.12020
C1707       C  0.20182784  0.90187733  0.67866496     0.02090
C1708       C  0.20205329  0.93915388  0.68314607    -0.00230
C1709       C  0.20371698  0.95234277  0.71822657    -0.11960
C1710       C  0.20188660  0.92923412  0.74813321     0.01980
H1711       H  0.20383811  0.85044951  0.70433951     0.14960
H1712       H  0.20857750  0.98048831  0.72226804     0.14960
C1713       C  0.20192564  0.94373895  0.78355105     0.36610
C1714       C  0.20444900  0.88587997  0.64417051     0.36520
N1715       N  0.20208153  0.95530304  0.81201102    -0.43730
N1716       N  0.20704364  0.87192457  0.61704892    -0.43730
C1717       C  0.13646477  0.81456770  0.41585156    -0.00140
C1718       C  0.14837670  0.81123941  0.45123555    -0.12020
C1719       C  0.12473249  0.81067584  0.48021954     0.02090
C1720       C  0.08795288  0.81151514  0.47421792    -0.00230
C1721       C  0.07618226  0.81409320  0.43836163    -0.11960
C1722       C  0.09999009  0.81608930  0.40951318     0.01980
H1723       H  0.17656410  0.80978222  0.45621375     0.14960
H1724       H  0.04813408  0.81331335  0.43251065     0.14960
C1725       C  0.08654524  0.81915105  0.37361969     0.36610
C1726       C  0.13923569  0.80766482  0.51547140     0.36520
N1727       N  0.07582159  0.82137671  0.34479170    -0.43730
N1728       N  0.15140680  0.80520183  0.54359980    -0.43730
C1729       C  0.21409187  0.89841360  0.42171435    -0.00140
C1730       C  0.21129128  0.88489095  0.45694904    -0.12020
C1731       C  0.20373426  0.90719604  0.48578071     0.02090
C1732       C  0.20256115  0.94459771  0.48098700    -0.00230
C1733       C  0.20539490  0.95829053  0.44567134    -0.11960
C1734       C  0.21038965  0.93563703  0.41626007     0.01980
H1735       H  0.21273595  0.85629691  0.46165576     0.14960
H1736       H  0.20451938  0.98694131  0.44121577     0.14960
C1737       C  0.21227669  0.95104644  0.38072837     0.36610
C1738       C  0.19577637  0.89086529  0.51988004     0.36520
N1739       N  0.21405961  0.96329910  0.35216988    -0.43730
N1740       N  0.18797603  0.87750715  0.54682583    -0.43730
C1741       C  0.89017142  0.65565816  0.87308859    -0.00140
C1742       C  0.87229743  0.62551280  0.86103119    -0.12020
C1743       C  0.88747053  0.59129040  0.86184284     0.02090
C1744       C  0.92292739  0.58658802  0.87295940    -0.00230
C1745       C  0.94179003  0.61711859  0.88365117    -0.11960
C1746       C  0.92562068  0.65121879  0.88425168     0.01980
H1747       H  0.84554361  0.62889044  0.85151867     0.14960
H1748       H  0.96890380  0.61428386  0.89252719     0.14960
C1749       C  0.94546851  0.68120517  0.89718904     0.36610
C1750       C  0.86575673  0.56174020  0.85071148     0.36520
N1751       N  0.96134152  0.70532536  0.90751471    -0.43730
N1752       N  0.84824476  0.53812794  0.84190135    -0.43730
C1753       C  0.82066720  0.65335081  0.96259061    -0.00140
C1754       C  0.83016714  0.66091117  0.99785378    -0.12020
C1755       C  0.83743939  0.63315737  0.02279072     0.02090
C1756       C  0.83670660  0.59678535  0.01256487    -0.00230
C1757       C  0.82949495  0.58955127  0.97684817    -0.11960
C1758       C  0.82051649  0.61698794  0.95251481     0.01980
H1759       H  0.83288866  0.68857409  0.00564187     0.14960
H1760       H  0.82775753  0.56194088  0.96859135     0.14960
C1761       C  0.81159129  0.60672142  0.91694823     0.36610
C1762       C  0.84570301  0.64258591  0.05894642     0.36520
N1763       N  0.80397716  0.59706070  0.88890363    -0.43730
N1764       N  0.85278696  0.65047803  0.08775261    -0.43730
C1765       C  0.88994130  0.35351274  0.87094657    -0.00140
C1766       C  0.92407165  0.34130197  0.87850751    -0.12020
C1767       C  0.95236228  0.36525926  0.88039903     0.02090
C1768       C  0.94619087  0.40281483  0.87736727    -0.00230
C1769       C  0.91162428  0.41485848  0.87153284    -0.11960
C1770       C  0.88420750  0.39066228  0.86620297     0.01980
H1771       H  0.92848340  0.31293381  0.88340023     0.14960
H1772       H  0.90648749  0.44320735  0.86760474     0.14960
C1773       C  0.85140361  0.40487628  0.85273968     0.36610
C1774       C  0.98726127  0.34981425  0.88400545     0.36520
N1775       N  0.82660213  0.41774446  0.83984674    -0.43730
N1776       N  0.01467791  0.33603818  0.88625454    -0.43730
C1777       C  0.81633034  0.40070603  0.01344192    -0.00140
C1778       C  0.81267437  0.41211432  0.97798807    -0.12020
C1779       C  0.80440538  0.38796734  0.95160051     0.02090
C1780       C  0.80589221  0.35076972  0.95864515    -0.00230
C1781       C  0.81089990  0.33885609  0.99394411    -0.11960
C1782       C  0.81363512  0.36364101  0.02161319     0.01980
H1783       H  0.81208429  0.44052245  0.97143155     0.14960
H1784       H  0.81249260  0.31038366  0.99982647     0.14960
C1785       C  0.81173853  0.35048178  0.05791842     0.36610
C1786       C  0.79173334  0.40250805  0.91830108     0.36520
N1787       N  0.80906122  0.33922455  0.08675999    -0.43730
N1788       N  0.77938724  0.41579129  0.89321393    -0.43730
C1789       C  0.80913698  0.89219171  0.74174199    -0.00140
C1790       C  0.81094834  0.87964191  0.70653864    -0.12020
C1791       C  0.81550239  0.90297555  0.67720345     0.02090
C1792       C  0.81552766  0.94025435  0.68210380    -0.00230
C1793       C  0.81238111  0.95299770  0.71730178    -0.11960
C1794       C  0.81002454  0.92935910  0.74694601     0.01980
H1795       H  0.81073045  0.85112478  0.70213201     0.14960
H1796       H  0.81046467  0.98158891  0.72149834     0.14960
C1797       C  0.80781375  0.94367377  0.78238753     0.36610
C1798       C  0.81915427  0.88789973  0.64218107     0.36520
N1799       N  0.80578021  0.95514368  0.81083186    -0.43730
N1800       N  0.82254589  0.87584126  0.61413350    -0.43730
C1801       C  0.88505917  0.81049110  0.73724089    -0.00140
C1802       C  0.86625162  0.80201061  0.70621201    -0.12020
C1803       C  0.88227753  0.80324971  0.67228473     0.02090
C1804       C  0.91847823  0.81230597  0.66850441    -0.00230
C1805       C  0.93748998  0.82054247  0.69960805    -0.11960
C1806       C  0.92109155  0.81993796  0.73354324     0.01980
H1807       H  0.83822228  0.79611920  0.70823912     0.14960
H1808       H  0.96558788  0.82636768  0.69765081     0.14960
C1809       C  0.94162855  0.82922898  0.76433710     0.36610
C1810       C  0.86063415  0.79589091  0.64162975     0.36520
N1811       N  0.95809262  0.83658045  0.78908664    -0.43730
N1812       N  0.84326078  0.78999581  0.61709188    -0.43730
C1813       C  0.81432528  0.89446918  0.42063388    -0.00140
C1814       C  0.80241199  0.87975824  0.45315984    -0.12020
C1815       C  0.80718400  0.89737457  0.48518148     0.02090
C1816       C  0.82029985  0.93264285  0.48506412    -0.00230
C1817       C  0.83228616  0.94773979  0.45260810    -0.11960
C1818       C  0.82955005  0.92897266  0.42052422     0.01980
H1819       H  0.79160047  0.85303221  0.45386015     0.14960
H1820       H  0.84304162  0.97454520  0.45239633     0.14960
C1821       C  0.84277036  0.94517210  0.38780240     0.36610
C1822       C  0.79856880  0.87813753  0.51781873     0.36520
N1823       N  0.85322414  0.95810525  0.36146645    -0.43730
N1824       N  0.79170750  0.86165901  0.54338951    -0.43730
C1825       C  0.92980670  0.81594907  0.49729992    -0.00140
C1826       C  0.89398270  0.80603858  0.49708753    -0.12020
C1827       C  0.87440710  0.80573194  0.46570650     0.02090
C1828       C  0.89059392  0.81491256  0.43246093    -0.00230
C1829       C  0.92575625  0.82759893  0.43294692    -0.11960
C1830       C  0.94509650  0.82886497  0.46499276     0.01980
H1831       H  0.88118711  0.79730999  0.52180960     0.14960
H1832       H  0.93758016  0.83801762  0.40841469     0.14960
C1833       C  0.97949420  0.84551562  0.46425720     0.36610
C1834       C  0.83728937  0.79744135  0.46988704     0.36520
N1835       N  0.00653191  0.86006493  0.46382622    -0.43730
N1836       N  0.80785508  0.79064895  0.47567590    -0.43730
C1837       C  0.30794713  0.90984896  0.51195330    -0.00140
C1838       C  0.30936820  0.91892852  0.47551769    -0.12020
C1839       C  0.30609899  0.89252208  0.44970695     0.02090
C1840       C  0.30697790  0.85588014  0.46005492    -0.00230
C1841       C  0.30516106  0.84658464  0.49598090    -0.11960
C1842       C  0.30238961  0.87303209  0.52154306     0.01980
H1843       H  0.30913433  0.94690935  0.46719086     0.14960
H1844       H  0.30434419  0.81849949  0.50387989     0.14960
C1845       C  0.28685176  0.86131885  0.55497777     0.36610
C1846       C  0.30274506  0.90379968  0.41272608     0.36520
N1847       N  0.27227892  0.85017446  0.58006832    -0.43730
N1848       N  0.30064840  0.91350071  0.38327913    -0.43730
C1849       C  0.39833688  0.86261456  0.39064511    -0.00140
C1850       C  0.39222447  0.89610593  0.40697718    -0.12020
C1851       C  0.41733245  0.92354127  0.40770561     0.02090
C1852       C  0.45065679  0.91837128  0.39204184    -0.00230
C1853       C  0.45798738  0.88414113  0.37732426    -0.11960
C1854       C  0.43221472  0.85677457  0.37613240     0.01980
H1855       H  0.36773357  0.90097966  0.42044147     0.14960
H1856       H  0.48354279  0.87936959  0.36478156     0.14960
C1857       C  0.44131989  0.82300977  0.36042375     0.36610
C1858       C  0.40733380  0.95716899  0.42336759     0.36520
N1859       N  0.44873907  0.79590791  0.34786016    -0.43730
N1860       N  0.39913629  0.98397899  0.43608087    -0.43730
C1861       C  0.85140439  0.32376985  0.46290412    -0.00140
C1862       C  0.88434810  0.34105595  0.45709922    -0.12020
C1863       C  0.90858960  0.34640387  0.48453716     0.02090
C1864       C  0.90214414  0.33101088  0.51828891    -0.00230
C1865       C  0.86819473  0.31571319  0.52497848    -0.11960
C1866       C  0.84296297  0.31228947  0.49775869     0.01980
H1867       H  0.89100679  0.35132996  0.43098337     0.14960
H1868       H  0.86256320  0.30332178  0.55077327     0.14960
C1869       C  0.80890428  0.29664225  0.50595819     0.36610
C1870       C  0.94060290  0.36634892  0.47693353     0.36520
N1871       N  0.78144013  0.28426665  0.51231247    -0.43730
N1872       N  0.96613886  0.38256344  0.47095462    -0.43730
C1873       C  0.84534899  0.39452291  0.37380095    -0.00140
C1874       C  0.88032966  0.38135919  0.37105761    -0.12020
C1875       C  0.90986633  0.40380094  0.37506689     0.02090
C1876       C  0.90488626  0.44092111  0.37873243    -0.00230
C1877       C  0.86972416  0.45401915  0.38111852    -0.11960
C1878       C  0.84036356  0.43132234  0.37887454     0.01980
H1879       H  0.88454420  0.35274654  0.36874282     0.14960
H1880       H  0.86502735  0.48252123  0.38365363     0.14960
C1881       C  0.80519672  0.44621421  0.38224179     0.36610
C1882       C  0.94478732  0.38800754  0.37566099     0.36520
N1883       N  0.77696859  0.45812790  0.38478790    -0.43730
N1884       N  0.97285171  0.37545037  0.37632153    -0.43730
C1885       C  0.44492655  0.31359177  0.97760528    -0.00140
C1886       C  0.45869977  0.31659083  0.94254290    -0.12020
C1887       C  0.43707754  0.31195016  0.91245853     0.02090
C1888       C  0.40119120  0.30224389  0.91684286    -0.00230
C1889       C  0.38798352  0.29776512  0.95174134    -0.11960
C1890       C  0.40838539  0.30608887  0.98146437     0.01980
H1891       H  0.48673337  0.32130847  0.93866057     0.14960
H1892       H  0.36015159  0.29175680  0.95557273     0.14960
C1893       C  0.39050107  0.30661646  0.01557276     0.36610
C1894       C  0.45196872  0.31745094  0.87721475     0.36520
N1895       N  0.37452799  0.30665284  0.04205188    -0.43730
N1896       N  0.46384269  0.32172698  0.84887697    -0.43730
C1897       C  0.32309710  0.42375206  0.99590756    -0.00140
C1898       C  0.31109588  0.38823485  0.99594291    -0.12020
C1899       C  0.31161847  0.36782461  0.96473077     0.02090
C1900       C  0.32334078  0.38277193  0.93163019    -0.00230
C1901       C  0.33668348  0.41798915  0.93192129    -0.11960
C1902       C  0.33686331  0.43821836  0.96347016     0.01980
H1903       H  0.30034067  0.37646918  0.02037355     0.14960
H1904       H  0.34828310  0.42923274  0.90764463     0.14960
C1905       C  0.35434913  0.47246915  0.96266196     0.36610
C1906       C  0.30044877  0.33121185  0.96798947     0.36520
N1907       N  0.36942057  0.49940017  0.96235507    -0.43730
N1908       N  0.29122579  0.30190489  0.97140004    -0.43730
C1909       C  0.71475292  0.85287892  0.70215781    -0.00140
C1910       C  0.71728900  0.88818981  0.71418199    -0.12020
C1911       C  0.71114046  0.91779723  0.69162159     0.02090
C1912       C  0.70583626  0.91302098  0.65482374    -0.00230
C1913       C  0.70436630  0.87754300  0.64244510    -0.11960
C1914       C  0.70814563  0.84777660  0.66570866     0.01980
H1915       H  0.72173209  0.89257446  0.74210492     0.14960
H1916       H  0.70252321  0.87313231  0.61410105     0.14960
C1917       C  0.70637768  0.81218166  0.65159195     0.36610
C1918       C  0.71105194  0.95282222  0.70720657     0.36520
N1919       N  0.70537225  0.78359440  0.64026250    -0.43730
N1920       N  0.71045633  0.98034428  0.72087201    -0.43730
C1921       C  0.63815789  0.86155136  0.78625189    -0.00140
C1922       C  0.60331979  0.86500537  0.77319797    -0.12020
C1923       C  0.58556652  0.89822596  0.77317471     0.02090
C1924       C  0.60130750  0.92797535  0.78933398    -0.00230
C1925       C  0.63597728  0.92470411  0.80183439    -0.11960
C1926       C  0.65495662  0.89292183  0.79871123     0.01980
H1927       H  0.59130886  0.84251600  0.75999981     0.14960
H1928       H  0.64902770  0.94764380  0.81324973     0.14960
C1929       C  0.69245229  0.89566767  0.80509265     0.36610
C1930       C  0.55411750  0.90254536  0.75187926     0.36520
N1931       N  0.72229362  0.90036805  0.81021512    -0.43730
N1932       N  0.52958819  0.90640736  0.73382949    -0.43730
C1933       C  0.84791890  0.62849949  0.77658089    -0.00140
C1934       C  0.87964532  0.64497601  0.78572177    -0.12020
C1935       C  0.91215620  0.62745716  0.78468653     0.02090
C1936       C  0.91344612  0.59055735  0.77713634    -0.00230
C1937       C  0.88171664  0.57374484  0.76658149    -0.11960
C1938       C  0.84931318  0.59273394  0.76535069     0.01980
H1939       H  0.87854129  0.67190795  0.79493337     0.14960
H1940       H  0.88192468  0.54547584  0.76057973     0.14960
C1941       C  0.81779634  0.57496409  0.75343879     0.36610
C1942       C  0.94283771  0.64797356  0.79462314     0.36520
N1943       N  0.79246694  0.56070037  0.74391619    -0.43730
N1944       N  0.96688562  0.66500468  0.80289977    -0.43730
C1945       C  0.86101798  0.71395905  0.70975108    -0.00140
C1946       C  0.86167111  0.70801394  0.67305062    -0.12020
C1947       C  0.89361515  0.70787327  0.65389107     0.02090
C1948       C  0.92635674  0.71149505  0.67186030    -0.00230
C1949       C  0.92568614  0.71679850  0.70861313    -0.11960
C1950       C  0.89381497  0.71924503  0.72742384     0.01980
H1951       H  0.83687946  0.70381509  0.65923253     0.14960
H1952       H  0.95043968  0.72133906  0.72244507     0.14960
C1953       C  0.89719549  0.72792224  0.76452546     0.36610
C1954       C  0.89078722  0.70917500  0.61569110     0.36520
N1955       N  0.90317586  0.73472584  0.79392223    -0.43730
N1956       N  0.88667768  0.71227526  0.58528688    -0.43730
C1957       C  0.64510202  0.72195501  0.95176168    -0.00140
C1958       C  0.61013447  0.71179899  0.94474321    -0.12020
C1959       C  0.58570029  0.70702851  0.97267668     0.02090
C1960       C  0.59596108  0.71404212  0.00800721    -0.00230
C1961       C  0.63148818  0.72272187  0.01479321    -0.11960
C1962       C  0.65556628  0.72779838  0.98728740     0.01980
H1963       H  0.60299136  0.70413330  0.91792932     0.14960
H1964       H  0.64032744  0.72730631  0.04183225     0.14960
C1965       C  0.69201647  0.73532399  0.99645635     0.36610
C1966       C  0.55180951  0.69149953  0.96475722     0.36520
N1967       N  0.72109656  0.74133078  0.00388552    -0.43730
N1968       N  0.52527259  0.67764859  0.95839941    -0.43730
C1969       C  0.69988471  0.61532163  0.92584069    -0.00140
C1970       C  0.72730150  0.59180161  0.91912416    -0.12020
C1971       C  0.73618901  0.56581435  0.94519799     0.02090
C1972       C  0.71950364  0.56671390  0.97978188    -0.00230
C1973       C  0.68625819  0.58286481  0.98158677    -0.11960
C1974       C  0.67454919  0.60347177  0.95228987     0.01980
H1975       H  0.74122915  0.59408889  0.89402734     0.14960
H1976       H  0.66993796  0.57989364  0.00540408     0.14960
C1977       C  0.63802913  0.61526928  0.95179579     0.36610
C1978       C  0.76148788  0.53851079  0.93544403     0.36520
N1979       N  0.60869731  0.62436301  0.95150267    -0.43730
N1980       N  0.78142916  0.51642295  0.92741646    -0.43730
loop_ 
_geom_bond_atom_site_label_1 
_geom_bond_atom_site_label_2 
_geom_bond_distance 
_geom_bond_site_symmetry_2 
_ccdc_geom_bond_type 
C1            C2   1.443       .  A
C1            C6   1.369       .  A
C1         C1969   1.516       .  S
C2            C3   1.457       .  A
C2            H7   1.082       .  S
C3            C4   1.415       .  A
C3           C29   1.544       .  S
C4            C5   1.391       .  A
C4            H8   1.079       .  S
C5            C6   1.363       .  A
C5         C1957   1.449       .  S
C6            H9   1.084       .  S
C10          C11   1.422       .  A
C10          C15   1.386       .  A
C10        C1933   1.487       .  S
C11          C12   1.434       .  A
C11          H16   1.079       .  S
C12          C13   1.417       .  A
C12          C33   1.542       .  S
C13          C14   1.399       .  A
C13          H17   1.071       .  S
C14          C15   1.386       .  A
C14        C1945   1.481       .  S
C15          H18   1.087       .  S
C19          C20   1.417       .  A
C19          C24   1.438       .  A
C19          C31   1.556       .  S
C20          C21   1.412       .  A
C20          H25   1.066       .  S
C21          C22   1.380       .  A
C21        C1921   1.493       .  S
C22          C23   1.386       .  A
C22          H26   1.088       .  S
C23          C24   1.419       .  A
C23        C1909   1.487       .  S
C24          H27   1.079       .  S
C28          C29   1.443       .  A
C28          C33   1.440       .  A
C28          C88   1.560       .  S
C29          C30   1.460       .  A
C30          C31   1.455       .  A
C30         C237   1.572       .  S
C31          C32   1.425       .  A
C32          C33   1.446       .  A
C32          C70   1.553       .  S
C34          C35   1.423       .  A
C34          C39   1.376       .  A
C34        C1900   1.512       .  S
C35          C36   1.418       .  A
C35          H40   1.052       .  S
C36          C37   1.436       .  A
C36         C688   1.569       .  S
C37          C38   1.423       .  A
C37          H41   1.077       .  S
C38          C39   1.388       .  A
C38        C1888   1.483       .  S
C39          H42   1.088       .  S
C43          C44   1.404       .  A
C43          C48   1.378       .  A
C43        C1873   1.485       .  S
C44          C45   1.432       .  A
C44          H49   1.078       .  S
C45          C46   1.439       .  A
C45         C471   1.553       .  S
C46          C47   1.425       .  A
C46          H50   1.076       .  S
C47          C48   1.385       .  A
C47        C1861   1.497       .  S
C48          H51   1.087       .  S
C52          C53   1.432       .  A
C52          C57   1.383       .  A
C52        C1849   1.516       .  S
C53          C54   1.451       .  A
C53          H58   1.077       .  S
C54          C55   1.418       .  A
C54         C252   1.556       .  S
C55          C56   1.393       .  A
C55          H59   1.076       .  S
C56          C57   1.378       .  A
C56        C1840   1.466       .  S
C57          H60   1.087       .  S
C61          C62   1.427       .  A
C61          C66   1.425       .  A
C61         C399   1.539       .  S
C62          C63   1.410       .  A
C62          H67   1.075       .  S
C63          C64   1.382       .  A
C63        C1828   1.494       .  S
C64          C65   1.390       .  A
C64          H68   1.086       .  S
C65          C66   1.415       .  A
C65        C1813   1.480       .  S
C66          H69   1.079       .  S
C70          C71   1.418       .  A
C70          C75   1.433       .  A
C71          C72   1.413       .  A
C71          H76   1.065       .  S
C72          C73   1.384       .  A
C72        C1801   1.494       .  S
C73          C74   1.388       .  A
C73          H77   1.087       .  S
C74          C75   1.417       .  A
C74        C1789   1.488       .  S
C75          H78   1.075       .  S
C79          C80   1.430       .  A
C79          C84   1.424       .  A
C79         C616   1.533       .  S
C80          C81   1.406       .  A
C80          H85   1.078       .  S
C81          C82   1.381       .  A
C81        C1780   1.475       .  S
C82          C83   1.380       .  A
C82          H86   1.088       .  S
C83          C84   1.402       .  A
C83        C1765   1.469       .  S
C84          H87   1.077       .  S
C88          C89   1.434       .  A
C88          C93   1.436       .  A
C89          C90   1.415       .  A
C89          H94   1.074       .  S
C90          C91   1.381       .  A
C90        C1741   1.495       .  S
C91          C92   1.386       .  A
C91          H95   1.087       .  S
C92          C93   1.424       .  A
C92        C1753   1.493       .  S
C93          H96   1.075       .  S
C97          C98   1.383       .  A
C97         C102   1.402       .  A
C97        C1717   1.477       .  S
C98          C99   1.386       .  A
C98         H103   1.088       .  S
C99         C100   1.421       .  A
C99        C1729   1.495       .  S
C100        C101   1.433       .  A
C100        H104   1.073       .  S
C101        C102   1.425       .  A
C101        C253   1.550       .  S
C102        H105   1.076       .  S
C106        C107   1.404       .  A
C106        C111   1.393       .  A
C106       C1705   1.470       .  S
C107        C108   1.416       .  A
C107        H112   1.079       .  S
C108        C109   1.430       .  A
C108        C163   1.533       .  S
C109        C110   1.415       .  A
C109        H113   1.076       .  S
C110        C111   1.390       .  A
C110       C1696   1.498       .  S
C111        H114   1.087       .  S
O115        C123   1.268       .  A
O115       Co135   2.023       .  S
O116        C124   1.312       .  A
O116       Co136   2.159       .  S
O117        C125   1.262       .  A
O117       Co137   1.968       .  S
O118        C126   1.271       .  A
O118       Co138   1.988   1_655  S
O119        C125   1.257       .  A
O119       Co136   2.001       .  S
O120        C126   1.269       .  A
O120       Co135   1.983       .  S
O121        C124   1.251       .  A
O121       Co138   1.845       .  S
O122        C123   1.262       .  A
O122       Co137   1.962   1_655  S
C123       C1804   1.495       .  S
C124       C1720   1.491       .  S
C125       C1693   1.507       .  S
C126       C1825   1.492       .  S
O127        C140   1.261       .  A
O127       Co135   1.980       .  S
O128        C141   1.268       .  A
O128       Co136   1.985       .  S
O129        C142   1.267       .  A
O129       Co137   2.002   1_655  S
O130        C143   1.311       .  A
O130       Co138   2.154       .  S
O131        C143   1.252       .  A
O131       Co136   1.835       .  S
O132        C142   1.257       .  A
O132       Co135   1.951       .  S
O133        C140   1.253       .  A
O133       Co138   1.994   1_655  S
O134        C141   1.264       .  A
O134       Co137   1.986       .  S
Co135       O139   2.087   1_655  S
Co136       O139   2.038       .  S
Co137       O139   2.101       .  S
Co138       O139   2.038       .  S
C140       C1684   1.508       .  S
C141       C1657   1.491       .  S
C142       C1948   1.477       .  S
C143       C1669   1.480       .  S
C144        C145   1.399       .  A
C144        C149   1.386       .  A
C144       C1633   1.468       .  S
C145        C146   1.419       .  A
C145        H150   1.079       .  S
C146        C147   1.426       .  A
C146        C166   1.532       .  S
C147        C148   1.413       .  A
C147        H151   1.070       .  S
C148        C149   1.384       .  A
C148       C1645   1.488       .  S
C149        H152   1.088       .  S
C153        C154   1.390       .  A
C153        C158   1.403       .  A
C153       C1609   1.465       .  S
C154        C155   1.381       .  A
C154        H159   1.088       .  S
C155        C156   1.415       .  A
C155       C1621   1.498       .  S
C156        C157   1.439       .  A
C156        H160   1.077       .  S
C157        C158   1.417       .  A
C157        C164   1.536       .  S
C158        H161   1.081       .  S
C162        C163   1.426       .  A
C162        C167   1.436       .  A
C162        C168   1.529       .  S
C163        C164   1.432       .  A
C164        C165   1.415       .  A
C165        C166   1.428       .  A
C165        C224   1.521       .  S
C166        C167   1.428       .  A
C167        C219   1.537       .  S
C168        C169   1.427       .  A
C168        C173   1.416       .  A
C169        C170   1.411       .  A
C169        H174   1.078       .  S
C170        C171   1.388       .  A
C170       C1660   1.488       .  S
C171        C172   1.390       .  A
C171        H175   1.087       .  S
C172        C173   1.402       .  A
C172       C1600   1.472       .  S
C173        H176   1.079       .  S
O177        C185   1.289       .  A
O177       Co197   2.067   1_655  S
O178        C186   1.290       .  A
O178       Co198   2.075       .  S
O179        C187   1.317       .  A
O179       Co199   2.115       .  S
O180        C188   1.314       .  A
O180       Co200   2.112       .  S
O181        C187   1.264       .  A
O181       Co198   1.843   1_655  S
O182        C188   1.263       .  A
O182       Co197   1.840       .  S
O183        C186   1.273       .  A
O183       Co200   1.906       .  S
O184        C185   1.279       .  A
O184       Co199   1.931       .  S
C185       C1744   1.499       .  S
C186       C1585   1.486       .  S
C187       C1768   1.474       .  S
C188       C1573   1.485       .  S
O189        C202   1.272       .  A
O189       Co197   2.024       .  S
O190        C203   1.272       .  A
O190       Co198   2.026   1_655  S
O191        C204   1.256       .  A
O191       Co199   2.005       .  S
O192        C205   1.256       .  A
O192       Co200   2.001       .  S
O193        C205   1.251       .  A
O193       Co198   1.956       .  S
O194        C204   1.252       .  A
O194       Co197   1.958   1_655  S
O195        C202   1.244       .  A
O195       Co200   1.911       .  S
O196        C203   1.248       .  A
O196       Co199   1.919       .  S
Co197       O201   1.968       .  S
Co198       O201   1.980       .  S
Co199       O201   2.051   1_655  S
Co200       O201   2.050       .  S
C202       C1597   1.469       .  S
C203       C1549   1.472       .  S
C204       C1936   1.490       .  S
C205       C1561   1.487       .  S
C206        C207   1.377       .  A
C206        C211   1.427       .  A
C206       C1588   1.496       .  S
C207        C208   1.376       .  A
C207        H212   1.088       .  S
C208        C209   1.410       .  A
C208       C1537   1.482       .  S
C209        C210   1.423       .  A
C209        H213   1.071       .  S
C210        C211   1.442       .  A
C210        C689   1.568       .  S
C211        H214   1.072       .  S
C215        C216   1.385       .  A
C215        C220   1.407       .  A
C215       C1576   1.476       .  S
C216        C217   1.379       .  A
C216        H221   1.087       .  S
C217        C218   1.410       .  A
C217       C1528   1.487       .  S
C218        C219   1.430       .  A
C218        H222   1.077       .  S
C219        C220   1.426       .  A
C220        H223   1.078       .  S
C224        C225   1.424       .  A
C224        C229   1.415       .  A
C225        C226   1.403       .  A
C225        H230   1.078       .  S
C226        C227   1.384       .  A
C226       C1513   1.477       .  S
C227        C228   1.387       .  A
C227        H231   1.087       .  S
C228        C229   1.399       .  A
C228       C1501   1.465       .  S
C229        H232   1.079       .  S
C233        C234   1.382       .  A
C233        C238   1.411       .  A
C233       C1489   1.496       .  S
C234        C235   1.382       .  A
C234        H239   1.087       .  S
C235        C236   1.432       .  A
C235       C1477   1.499       .  S
C236        C237   1.439       .  A
C236        H240   1.076       .  S
C237        C238   1.420       .  A
C238        H241   1.056       .  S
C242        C243   1.429       .  A
C242        C247   1.429       .  A
C242        C254   1.548       .  S
C243        C244   1.409       .  A
C243        H248   1.078       .  S
C244        C245   1.384       .  A
C244       C1672   1.476       .  S
C245        C246   1.382       .  A
C245        H249   1.087       .  S
C246        C247   1.415       .  A
C246       C1468   1.503       .  S
C247        H250   1.068       .  S
C251        C252   1.437       .  A
C251        C256   1.466       .  A
C251        C444   1.550       .  S
C252        C253   1.447       .  A
C253        C254   1.438       .  A
C254        C255   1.435       .  A
C255        C256   1.427       .  A
C255        C787   1.547       .  S
C256        C257   1.551       .  S
C257        C258   1.402       .  A
C257        C262   1.435       .  A
C258        C259   1.409       .  A
C258        H263   1.051       .  S
C259        C260   1.383       .  A
C259       C1444   1.494       .  S
C260        C261   1.391       .  A
C260        H264   1.087       .  S
C261        C262   1.424       .  A
C261       C1456   1.487       .  S
C262        H265   1.080       .  S
O266        C274   1.277       .  A
O266       Co286   1.915       .  S
O267        C275   1.290       .  A
O267       Co287   2.008       .  S
O268        C276   1.256       .  A
O268       Co288   1.948       .  S
O269        C277   1.258       .  A
O269       Co289   1.944       .  S
O270        C276   1.283       .  A
O270       Co287   2.012       .  S
O271        C277   1.295       .  A
O271       Co286   2.053       .  S
O272        C275   1.273       .  A
O272       Co289   1.984       .  S
O273        C274   1.300       .  A
O273       Co288   2.146       .  S
C274       C1897   1.504   1_554  S
C275       C1453   1.474       .  S
C276       C1648   1.485   1_554  S
C277       C1429   1.507       .  S
O278        C291   1.257       .  A
O278       Co286   1.932       .  S
O279        C292   1.270       .  A
O279       Co287   1.988       .  S
O280        C293   1.265   1_556  A
O280       Co288   1.857   1_556  S
O281        C294   1.284       .  A
O281       Co289   2.008       .  S
O282        C294   1.258       .  A
O282       Co287   1.947       .  S
O283        C293   1.293       .  A
O283       Co286   2.149       .  S
O284        C291   1.293       .  A
O284       Co289   2.024       .  S
O285        C292   1.277       .  A
O285       Co288   1.993       .  S
Co286       O290   1.989       .  S
Co287       O290   2.045       .  S
Co288       O290   1.966       .  S
Co289       O290   2.018       .  S
C291       C1420   1.478       .  S
C292       C1525   1.465       .  S
C293       C1540   1.466   1_554  S
C294       C1408   1.476       .  S
O295        C303   1.251       .  A
O295       Co315   1.845       .  S
O296        C304   1.264       .  A
O296       Co316   1.967       .  S
O297        C305   1.256       .  A
O297       Co317   1.992       .  S
O298        C306   1.265       .  A
O298       Co318   1.985   1_655  S
O299        C305   1.259       .  A
O299       Co316   1.961       .  S
O300        C306   1.268       .  A
O300       Co315   1.980       .  S
O301        C304   1.271       .  A
O301       Co318   2.012       .  S
O302        C303   1.311       .  A
O302       Co317   2.159   1_655  S
C303       C1876   1.490       .  S
C304       C1465   1.494       .  S
C305       C1357   1.502       .  S
C306       C1393   1.481       .  S
O307        C320   1.256       .  A
O307       Co315   1.976       .  S
O308        C321   1.269       .  A
O308       Co316   1.982       .  S
O309        C322   1.252       .  A
O309       Co317   1.849   1_655  S
O310        C323   1.261       .  A
O310       Co318   1.964       .  S
O311        C323   1.263       .  A
O311       Co316   1.996       .  S
O312        C322   1.308       .  A
O312       Co315   2.157       .  S
O313        C320   1.258       .  A
O313       Co318   1.964   1_655  S
O314        C321   1.266       .  A
O314       Co317   1.975       .  S
Co315       O319   2.033   1_655  S
Co316       O319   2.083       .  S
Co317       O319   2.048       .  S
Co318       O319   2.090       .  S
C320       C1333   1.493       .  S
C321       C1372   1.486       .  S
C322       C1345   1.493       .  S
C323       C1381   1.486       .  S
C324        C325   1.447       .  A
C324        C329   1.424       .  A
C324        C824   1.568       .  S
C325        C326   1.427       .  A
C325        H330   1.070       .  S
C326        C327   1.376       .  A
C326       C1417   1.498       .  S
C327        C328   1.375       .  A
C327        H331   1.087       .  S
C328        C329   1.411       .  A
C328       C1369   1.477       .  S
C329        H332   1.072       .  S
C333        C334   1.426       .  A
C333        C338   1.381       .  A
C333       C1324   1.497       .  S
C334        C335   1.418       .  A
C334        H339   1.055       .  S
C335        C336   1.433       .  A
C335        C470   1.560       .  S
C336        C337   1.409       .  A
C336        H340   1.076       .  S
C337        C338   1.380       .  A
C337       C1348   1.480       .  S
C338        H341   1.087       .  S
C342        C343   1.388       .  A
C342        C347   1.411       .  A
C342       C1309   1.499       .  S
C343        C344   1.387       .  A
C343        H348   1.087       .  S
C344        C345   1.412       .  A
C344       C1336   1.490       .  S
C345        C346   1.425       .  A
C345        H349   1.074       .  S
C346        C347   1.435       .  A
C346        C401   1.546       .  S
C347        H350   1.079       .  S
O351        C359   1.274       .  A
O351       Co371   1.996       .  S
O352        C360   1.273       .  A
O352       Co372   2.000       .  S
O353        C361   1.285       .  A
O353       Co373   1.883       .  S
O354        C362   1.270       .  A
O354       Co374   1.971       .  S
O355        C361   1.319       .  A
O355       Co372   2.102       .  S
O356        C362   1.284       .  A
O356       Co371   1.999       .  S
O357        C360   1.260       .  A
O357       Co374   2.025       .  S
O358        C359   1.255       .  A
O358       Co373   1.972       .  S
C359       C1756   1.482       .  S
C360       C1321   1.497       .  S
C361       C1312   1.491       .  S
C362       C1777   1.467       .  S
O363        C376   1.266       .  A
O363       Co371   1.989       .  S
O364        C377   1.260       .  A
O364       Co372   1.859       .  S
O365        C378   1.300       .  A
O365       Co373   2.047       .  S
O366        C379   1.281       .  A
O366       Co374   1.868       .  S
O367        C379   1.293       .  A
O367       Co372   2.084       .  S
O368        C378   1.267       .  A
O368       Co371   1.966       .  S
O369        C376   1.280       .  A
O369       Co374   2.007       .  S
O370        C377   1.327       .  A
O370       Co373   2.138       .  S
Co371       O375   2.008       .  S
Co372       O375   2.000       .  S
Co373       O375   2.008       .  S
Co374       O375   1.892       .  S
C376       C1300   1.489   1_554  S
C377       C1273   1.501       .  S
C378       C1972   1.497   1_554  S
C379       C1285   1.450       .  S
C380        C381   1.434       .  A
C380        C385   1.420       .  A
C380        C398   1.545       .  S
C381        C382   1.413       .  A
C381        H386   1.076       .  S
C382        C383   1.384       .  A
C382       C1261   1.500       .  S
C383        C384   1.392       .  A
C383        H387   1.087       .  S
C384        C385   1.413       .  A
C384       C1252   1.474       .  S
C385        H388   1.079       .  S
C389        C390   1.412       .  A
C389        C394   1.388       .  A
C389       C1396   1.480       .  S
C390        C391   1.417       .  A
C390        H395   1.071       .  S
C391        C392   1.424       .  A
C391        C400   1.547       .  S
C392        C393   1.417       .  A
C392        H396   1.063       .  S
C393        C394   1.388       .  A
C393       C1681   1.502       .  S
C394        H397   1.086       .  S
C398        C399   1.438       .  A
C398        C403   1.424       .  A
C399        C400   1.440       .  A
C400        C401   1.445       .  A
C401        C402   1.429       .  A
C402        C403   1.436       .  A
C402        C404   1.533       .  S
C403        C453   1.541       .  S
C404        C405   1.434       .  A
C404        C409   1.416       .  A
C405        C406   1.414       .  A
C405        H410   1.076       .  S
C406        C407   1.379       .  A
C406       C1276   1.488       .  S
C407        C408   1.385       .  A
C407        H411   1.087       .  S
C408        C409   1.395       .  A
C408       C1240   1.457       .  S
C409        H412   1.080       .  S
O413        C421   1.267       .  A
O413       Co433   1.987       .  S
O414        C422   1.266       .  A
O414       Co434   1.995       .  S
O415        C423   1.311       .  A
O415       Co435   2.142       .  S
O416        C424   1.317   1_554  A
O416       Co436   2.147       .  S
O417        C423   1.265       .  A
O417       Co434   1.833       .  S
O418        C424   1.263       .  A
O418       Co433   1.827   1_556  S
O419        C422   1.267       .  A
O419       Co436   1.985       .  S
O420        C421   1.258       .  A
O420       Co435   1.922       .  S
C421       C1960   1.468       .  S
C422       C1441   1.499       .  S
C423       C1237   1.465       .  S
C424       C1636   1.481       .  S
O425        C438   1.320       .  A
O425       Co433   2.158       .  S
O426        C439   1.315       .  A
O426       Co434   2.155       .  S
O427        C440   1.268       .  A
O427       Co435   1.989       .  S
O428        C441   1.258       .  A
O428       Co436   1.969       .  S
O429        C441   1.258       .  A
O429       Co434   1.941       .  S
O430        C440   1.263       .  A
O430       Co433   1.982       .  S
O431        C438   1.264       .  A
O431       Co436   1.810       .  S
O432        C439   1.262       .  A
O432       Co435   1.830       .  S
Co433       O437   1.936       .  S
Co434       O437   1.945       .  S
Co435       O437   1.921       .  S
Co436       O437   1.934       .  S
C438       C1504   1.477       .  S
C439       C1213   1.481       .  S
C440       C1480   1.506       .  S
C441       C1225   1.477       .  S
C442        C443   1.409       .  A
C442        C447   1.381       .  A
C442       C1228   1.466       .  S
C443        C444   1.419       .  A
C443        H448   1.075       .  S
C444        C445   1.438       .  A
C445        C446   1.418       .  A
C445        H449   1.075       .  S
C446        C447   1.374       .  A
C446       C1201   1.492       .  S
C447        H450   1.088       .  S
C451        C452   1.408       .  A
C451        C456   1.381       .  A
C451       C1192   1.488       .  S
C452        C453   1.430       .  A
C452        H457   1.077       .  S
C453        C454   1.424       .  A
C454        C455   1.409       .  A
C454        H458   1.078       .  S
C455        C456   1.386       .  A
C455       C1216   1.474       .  S
C456        H459   1.088       .  S
C460        C461   1.450       .  A
C460        C465   1.418       .  A
C460        C469   1.554       .  S
C461        C462   1.426       .  A
C461        H466   1.076       .  S
C462        C463   1.381       .  A
C462       C1180   1.513       .  S
C463        C464   1.382       .  A
C463        H467   1.086       .  S
C464        C465   1.404       .  A
C464       C1288   1.470       .  S
C465        H468   1.079       .  S
C469        C470   1.462       .  A
C469        C474   1.443       .  A
C470        C471   1.431       .  A
C471        C472   1.430       .  A
C472        C473   1.441       .  A
C472        C662   1.531       .  S
C473        C474   1.455       .  A
C473        C479   1.565       .  S
C474        C778   1.551       .  S
C475        C476   1.378       .  A
C475        C480   1.408       .  A
C475       C1153   1.495       .  S
C476        C477   1.386       .  A
C476        H481   1.080       .  S
C477        C478   1.436       .  A
C477       C1165   1.504       .  S
C478        C479   1.434       .  A
C478        H482   1.076       .  S
C479        C480   1.434       .  A
C480        H483   1.077       .  S
O484        C492   1.292       .  A
O484       Co504   2.019       .  S
O485        C493   1.285       .  A
O485       Co505   2.011       .  S
O486        C494   1.268       .  A
O486       Co506   1.991       .  S
O487        C495   1.296       .  A
O487       Co507   2.134   1_565  S
O488        C494   1.281       .  A
O488       Co505   2.002       .  S
O489        C495   1.272       .  A
O489       Co504   1.918       .  S
O490        C493   1.261       .  A
O490       Co507   1.951       .  S
O491        C492   1.258       .  A
O491       Co506   1.938   1_565  S
C492       C1204   1.478       .  S
C493       C1120   1.471       .  S
C494       C1129   1.482       .  S
C495       C1189   1.502       .  S
O496        C509   1.300       .  A
O496       Co504   2.149       .  S
O497        C510   1.271       .  A
O497       Co505   1.989       .  S
O498        C511   1.293       .  A
O498       Co506   2.036   1_565  S
O499        C512   1.290       .  A
O499       Co507   2.029       .  S
O500        C512   1.259       .  A
O500       Co505   1.948       .  S
O501        C511   1.254       .  A
O501       Co504   1.928       .  S
O502        C509   1.273       .  A
O502       Co507   1.912   1_565  S
O503        C510   1.285       .  A
O503       Co506   2.002       .  S
Co504       O508   1.986   1_565  S
Co505       O508   2.039       .  S
Co506       O508   2.045       .  S
Co507       O508   1.996       .  S
C509       C1264   1.510       .  S
C510       C1141   1.481       .  S
C511       C1852   1.496       .  S
C512       C1168   1.491       .  S
O513        C521   1.260   1_556  A
O513       Co533   1.962   1_556  S
O514        C522   1.302       .  A
O514       Co534   2.079       .  S
O515        C523   1.281       .  A
O515       Co535   1.950       .  S
O516        C524   1.287       .  A
O516       Co536   2.008       .  S
O517        C523   1.307       .  A
O517       Co534   2.097       .  S
O518        C524   1.269       .  A
O518       Co533   1.976       .  S
O519        C522   1.291       .  A
O519       Co536   1.993       .  S
O520        C521   1.280       .  A
O520       Co535   2.002       .  S
C521       C1885   1.478   1_554  S
C522       C1177   1.494       .  S
C523       C1069   1.475       .  S
C524       C1108   1.479   1_554  S
O525        C538   1.271       .  A
O525       Co533   1.996       .  S
O526        C539   1.276       .  A
O526       Co534   2.036       .  S
O527        C540   1.263       .  A
O527       Co535   1.969       .  S
O528        C541   1.277       .  A
O528       Co536   1.900       .  S
O529        C541   1.317       .  A
O529       Co534   2.140       .  S
O530        C540   1.283       .  A
O530       Co533   2.006       .  S
O531        C538   1.249       .  A
O531       Co536   1.971       .  S
O532        C539   1.250       .  A
O532       Co535   1.955       .  S
Co533       O537   2.059       .  S
Co534       O537   2.069       .  S
Co535       O537   2.083       .  S
Co536       O537   2.013       .  S
C538       C1048   1.495       .  S
C539       C1084   1.485       .  S
C540       C1057   1.485       .  S
C541       C1096   1.500       .  S
C542        C543   1.432       .  A
C542        C547   1.431       .  A
C542        C828   1.556       .  S
C543        C544   1.417       .  A
C543        H548   1.079       .  S
C544        C545   1.389       .  A
C544       C1081   1.495       .  S
C545        C546   1.386       .  A
C545        H549   1.087       .  S
C546        C547   1.411       .  A
C546       C1132   1.490       .  S
C547        H550   1.073       .  S
C551        C552   1.379       .  A
C551        C556   1.392       .  A
C551       C1036   1.479       .  S
C552        C553   1.387       .  A
C552        H557   1.086       .  S
C553        C554   1.439       .  A
C553       C1060   1.519       .  S
C554        C555   1.454       .  A
C554        H558   1.079       .  S
C555        C556   1.419       .  A
C555        C687   1.557       .  S
C556        H559   1.070       .  S
C560        C561   1.385       .  A
C560        C565   1.420       .  A
C560       C1045   1.500       .  S
C561        C562   1.386       .  A
C561        H566   1.088       .  S
C562        C563   1.406       .  A
C562       C1021   1.477       .  S
C563        C564   1.425       .  A
C563        H567   1.078       .  S
C564        C565   1.439       .  A
C564        C618   1.553       .  S
C565        H568   1.075       .  S
O569        C577   1.275       .  A
O569       Co589   1.877   1_565  S
O570        C578   1.292       .  A
O570       Co590   2.054       .  S
O571        C579   1.259       .  A
O571       Co591   1.875       .  S
O572        C580   1.258       .  A
O572       Co592   1.959       .  S
O573        C579   1.318       .  A
O573       Co590   2.117   1_565  S
O574        C580   1.276       .  A
O574       Co589   2.002       .  S
O575        C578   1.247       .  A
O575       Co592   1.905       .  S
O576        C577   1.298       .  A
O576       Co591   2.099       .  S
C577       C1924   1.483       .  S
C578       C1009   1.488       .  S
C579       C1624   1.509       .  S
C580        C997   1.470       .  S
O581        C594   1.266       .  A
O581       Co589   1.966       .  S
O582        C595   1.273       .  A
O582       Co590   1.864   1_565  S
O583        C596   1.256       .  A
O583       Co591   1.976       .  S
O584        C597   1.274       .  A
O584       Co592   1.978       .  S
O585        C597   1.242       .  A
O585       Co590   1.987       .  S
O586        C596   1.249       .  A
O586       Co589   1.977   1_565  S
O587        C594   1.285       .  A
O587       Co592   2.002       .  S
O588        C595   1.309       .  A
O588       Co591   2.105       .  S
Co589       O593   1.916       .  S
Co590       O593   2.041       .  S
Co591       O593   2.066   1_565  S
Co592       O593   2.069       .  S
C594       C1024   1.475       .  S
C595       C1516   1.476       .  S
C596       C1492   1.482       .  S
C597       C1033   1.515       .  S
C598        C599   1.383       .  A
C598        C603   1.421       .  A
C598       C1297   1.497       .  S
C599        C600   1.387       .  A
C599        H604   1.088       .  S
C600        C601   1.409       .  A
C600       C1105   1.481       .  S
C601        C602   1.425       .  A
C601        H605   1.080       .  S
C602        C603   1.436       .  A
C602        C617   1.552       .  S
C603        H606   1.075       .  S
C607        C608   1.408       .  A
C607        C612   1.382       .  A
C607       C1552   1.477       .  S
C608        C609   1.422       .  A
C608        H613   1.077       .  S
C609        C610   1.433       .  A
C609        C621   1.546       .  S
C610        C611   1.417       .  A
C610        H614   1.077       .  S
C611        C612   1.384       .  A
C611        C985   1.491       .  S
C612        H615   1.088       .  S
C616        C617   1.435       .  A
C616        C621   1.443       .  A
C617        C618   1.437       .  A
C618        C619   1.447       .  A
C619        C620   1.451       .  A
C619        C622   1.546       .  S
C620        C621   1.431       .  A
C620        C671   1.558       .  S
C622        C623   1.432       .  A
C622        C627   1.425       .  A
C623        C624   1.416       .  A
C623        H628   1.078       .  S
C624        C625   1.386       .  A
C624       C1000   1.483       .  S
C625        C626   1.382       .  A
C625        H629   1.087       .  S
C626        C627   1.408       .  A
C626        C973   1.486       .  S
C627        H630   1.073       .  S
O631        C639   1.260       .  A
O631       Co651   1.953       .  S
O632        C640   1.252       .  A
O632       Co652   1.944       .  S
O633        C641   1.268       .  A
O633       Co653   1.879       .  S
O634        C642   1.279       .  A
O634       Co654   1.985   1_565  S
O635        C641   1.299       .  A
O635       Co652   2.137       .  S
O636        C642   1.271       .  A
O636       Co651   1.989       .  S
O637        C640   1.288       .  A
O637       Co654   2.033       .  S
O638        C639   1.283       .  A
O638       Co653   2.012   1_565  S
C639       C1912   1.476       .  S
C640       C1156   1.493       .  S
C641        C976   1.482       .  S
C642       C1249   1.471       .  S
O643        C656   1.272       .  A
O643       Co651   1.988       .  S
O644        C657   1.266       .  A
O644       Co652   1.894       .  S
O645        C658   1.259       .  A
O645       Co653   1.956   1_565  S
O646        C659   1.259       .  A
O646       Co654   1.936       .  S
O647        C659   1.284       .  A
O647       Co652   2.001       .  S
O648        C658   1.281       .  A
O648       Co651   2.009       .  S
O649        C656   1.265       .  A
O649       Co654   1.982   1_565  S
O650        C657   1.294       .  A
O650       Co653   2.125       .  S
Co651       O655   2.044       .  S
Co652       O655   1.989   1_545  S
Co653       O655   1.998   1_545  S
Co654       O655   2.055   1_545  S
C656       C1816   1.466       .  S
C657        C952   1.487       .  S
C658       C1792   1.481       .  S
C659        C964   1.469       .  S
C660        C661   1.405       .  A
C660        C665   1.368       .  A
C660        C961   1.469       .  S
C661        C662   1.424       .  A
C661        H666   1.079       .  S
C662        C663   1.431       .  A
C663        C664   1.418       .  A
C663        H667   1.082       .  S
C664        C665   1.380       .  A
C664        C937   1.484       .  S
C665        H668   1.084       .  S
C669        C670   1.420       .  A
C669        C674   1.383       .  A
C669        C925   1.494       .  S
C670        C671   1.438       .  A
C670        H675   1.077       .  S
C671        C672   1.421       .  A
C672        C673   1.413       .  A
C672        H676   1.070       .  S
C673        C674   1.383       .  A
C673        C949   1.483       .  S
C674        H677   1.088       .  S
C678        C679   1.366       .  A
C678        C683   1.436       .  A
C678       C1012   1.501       .  S
C679        C680   1.366       .  A
C679        H684   1.084       .  S
C680        C681   1.409       .  A
C680        C913   1.464       .  S
C681        C682   1.424       .  A
C681        H685   1.081       .  S
C682        C683   1.450       .  A
C682        C692   1.549       .  S
C683        H686   1.082       .  S
C687        C688   1.436       .  A
C687        C692   1.451       .  A
C688        C689   1.471       .  A
C689        C690   1.458       .  A
C690        C691   1.470       .  A
C690        C760   1.568       .  S
C691        C692   1.449       .  A
C691        C769   1.596       .  S
O693        C701   1.253       .  A
O693       Co713   1.925       .  S
O694        C702   1.259       .  A
O694       Co714   1.977       .  S
O695        C703   1.280       .  A
O695       Co715   1.922       .  S
O696        C704   1.271       .  A
O696       Co716   1.972   1_565  S
O697        C703   1.287       .  A
O697       Co714   2.101       .  S
O698        C704   1.277       .  A
O698       Co713   2.007       .  S
O699        C702   1.264       .  A
O699       Co716   1.976       .  S
O700        C701   1.286       .  A
O700       Co715   2.016   1_565  S
C701       C1837   1.470       .  S
C702        C916   1.469       .  S
C703        C901   1.500       .  S
C704       C1612   1.460       .  S
O705        C718   1.280       .  A
O705       Co713   1.998       .  S
O706        C719   1.274       .  A
O706       Co714   1.903       .  S
O707        C720   1.268       .  A
O707       Co715   1.969   1_565  S
O708        C721   1.268       .  A
O708       Co716   1.998       .  S
O709        C721   1.284       .  A
O709       Co714   2.007       .  S
O710        C720   1.293       .  A
O710       Co713   2.025       .  S
O711        C718   1.260       .  A
O711       Co716   1.954   1_565  S
O712        C719   1.287       .  A
O712       Co715   2.106       .  S
Co713       O717   2.035   1_565  S
Co714       O717   2.005       .  S
Co715       O717   1.995       .  S
Co716       O717   2.021       .  S
C718       C1708   1.466       .  S
C719        C880   1.485       .  S
C720       C1732   1.491       .  S
C721        C889   1.487       .  S
O722        C730   1.292       .  A
O722       Co742   2.017   1_655  S
O723        C731   1.268       .  A
O723       Co743   1.883       .  S
O724        C732   1.266       .  A
O724       Co744   1.970       .  S
O725        C733   1.252       .  A
O725       Co745   1.934       .  S
O726        C732   1.287       .  A
O726       Co743   2.017   1_655  S
O727        C733   1.292       .  A
O727       Co742   2.036       .  S
O728        C731   1.298       .  A
O728       Co745   2.144       .  S
O729        C730   1.267       .  A
O729       Co744   1.952       .  S
C730       C1864   1.483       .  S
C731        C829   1.483       .  S
C732        C988   1.480       .  S
C733        C844   1.492       .  S
O734        C747   1.265       .  A
O734       Co742   1.979       .  S
O735        C748   1.254       .  A
O735       Co743   1.938   1_655  S
O736        C749   1.292       .  A
O736       Co744   2.035       .  S
O737        C750   1.269       .  A
O737       Co745   1.885       .  S
O738        C750   1.294       .  A
O738       Co743   2.125       .  S
O739        C749   1.259       .  A
O739       Co742   1.941   1_655  S
O740        C747   1.286       .  A
O740       Co745   2.013       .  S
O741        C748   1.292       .  A
O741       Co744   2.028       .  S
Co742       O746   2.041       .  S
Co743       O746   1.982       .  S
Co744       O746   2.043   1_655  S
Co745       O746   1.979       .  S
C747        C868   1.479       .  S
C748        C928   1.496       .  S
C749        C940   1.491       .  S
C750        C856   1.472       .  S
C751        C752   1.443       .  A
C751        C756   1.424       .  A
C751        C826   1.555       .  S
C752        C753   1.431       .  A
C752        H757   1.076       .  S
C753        C754   1.381       .  A
C753        C877   1.512       .  S
C754        C755   1.380       .  A
C754        H758   1.080       .  S
C755        C756   1.398       .  A
C755        C865   1.481       .  S
C756        H759   1.073       .  S
C760        C761   1.413       .  A
C760        C765   1.433       .  A
C761        C762   1.414       .  A
C761        H766   1.054       .  S
C762        C763   1.378       .  A
C762        C832   1.503       .  S
C763        C764   1.381       .  A
C763        H767   1.087       .  S
C764        C765   1.432       .  A
C764       C1564   1.489       .  S
C765        H768   1.075       .  S
C769        C770   1.456       .  A
C769        C774   1.426       .  A
C770        C771   1.439       .  A
C770        H775   1.075       .  S
C771        C772   1.371       .  A
C771        C892   1.509       .  S
C772        C773   1.371       .  A
C772        H776   1.089       .  S
C773        C774   1.417       .  A
C773        C853   1.494       .  S
C774        H777   1.063       .  S
C778        C779   1.422       .  A
C778        C783   1.444       .  A
C779        C780   1.413       .  A
C779        H784   1.077       .  S
C780        C781   1.388       .  A
C780       C1117   1.487       .  S
C781        C782   1.385       .  A
C781        H785   1.080       .  S
C782        C783   1.422       .  A
C782       C1093   1.523       .  S
C783        H786   1.076       .  S
C787        C788   1.431       .  A
C787        C792   1.419       .  A
C788        C789   1.415       .  A
C788        H793   1.075       .  S
C789        C790   1.385       .  A
C789       C1405   1.481       .  S
C790        C791   1.381       .  A
C790        H794   1.088       .  S
C791        C792   1.411       .  A
C791       C1384   1.486       .  S
C792        H795   1.068       .  S
C796        C797   1.379       .  A
C796        C801   1.401       .  A
C796       C1072   1.485       .  S
C797        C798   1.378       .  A
C797        H802   1.079       .  S
C798        C799   1.435       .  A
C798       C1432   1.518       .  S
C799        C800   1.449       .  A
C799        H803   1.082       .  S
C800        C801   1.424       .  A
C800        C823   1.550       .  S
C801        H804   1.078       .  S
C805        C806   1.389       .  A
C805        C810   1.423       .  A
C805       C1144   1.494       .  S
C806        C807   1.383       .  A
C806        H811   1.088       .  S
C807        C808   1.397       .  A
C807        C904   1.475       .  S
C808        C809   1.415       .  A
C808        H812   1.075       .  S
C809        C810   1.440       .  A
C809        C827   1.540       .  S
C810        H813   1.080       .  S
C814        C815   1.385       .  A
C814        C819   1.432       .  A
C814        C841   1.502       .  S
C815        C816   1.377       .  A
C815        H820   1.088       .  S
C816        C817   1.412       .  A
C816       C1360   1.493       .  S
C817        C818   1.411       .  A
C817        H821   1.051       .  S
C818        C819   1.444       .  A
C818        C825   1.570       .  S
C819        H822   1.074       .  S
C823        C824   1.449       .  A
C823        C828   1.450       .  A
C824        C825   1.473       .  A
C825        C826   1.443       .  A
C826        C827   1.437       .  A
C827        C828   1.430       .  A
C829        C830   1.396       .  A
C829        C834   1.409       .  A
C830        C831   1.397       .  A
C830        H835   1.086       .  S
C831        C832   1.426       .  A
C831        C838   1.439       .  S
C832        C833   1.410       .  A
C833        C834   1.405       .  A
C833        H836   1.084       .  S
C834        C837   1.441       .  S
C837        N839   1.157       .  T
C838        N840   1.158       .  T
C841        C842   1.406       .  A
C841        C846   1.407       .  A
C842        C843   1.403       .  A
C842        H847   1.068       .  S
C843        C844   1.406       .  A
C843        C850   1.441       .  S
C844        C845   1.421       .  A
C845        C846   1.415       .  A
C845        H848   1.081       .  S
C846        C849   1.441       .  S
C849        N851   1.157       .  T
C850        N852   1.156       .  T
C853        C854   1.415       .  A
C853        C858   1.426       .  A
C854        C855   1.407       .  A
C854        H859   1.085       .  S
C855        C856   1.404       .  A
C855        C862   1.443       .  S
C856        C857   1.389       .  A
C857        C858   1.390       .  A
C857        H860   1.086       .  S
C858        C861   1.435       .  S
C861        N863   1.158       .  T
C862        N864   1.157       .  T
C865        C866   1.391       .  A
C865        C870   1.421       .  A
C866        C867   1.399       .  A
C866        H871   1.086       .  S
C867        C868   1.418       .  A
C867        C874   1.431       .  S
C868        C869   1.403       .  A
C869        C870   1.404       .  A
C869        H872   1.085       .  S
C870        C873   1.445       .  S
C873        N875   1.158       .  T
C874        N876   1.154       .  T
C877        C878   1.396       .  A
C877        C882   1.433       .  A
C878        C879   1.409       .  A
C878        H883   1.082       .  S
C879        C880   1.426       .  A
C879        C886   1.440       .  S
C880        C881   1.386       .  A
C881        C882   1.391       .  A
C881        H884   1.086       .  S
C882        C885   1.438       .  S
C885        N887   1.157       .  T
C886        N888   1.157       .  T
C889        C890   1.395       .  A
C889        C894   1.412       .  A
C890        C891   1.403       .  A
C890        H895   1.086       .  S
C891        C892   1.425       .  A
C891        C898   1.432       .  S
C892        C893   1.413       .  A
C893        C894   1.417       .  A
C893        H896   1.084       .  S
C894        C897   1.439       .  S
C897        N899   1.157       .  T
C898        N900   1.154       .  T
C901        C902   1.402       .  A
C901        C906   1.432       .  A
C902        C903   1.398       .  A
C902        H907   1.083       .  S
C903        C904   1.413       .  A
C903        C910   1.441       .  S
C904        C905   1.386       .  A
C905        C906   1.399       .  A
C905        H908   1.086       .  S
C906        C909   1.434       .  S
C909        N911   1.155       .  T
C910        N912   1.158       .  T
C913        C914   1.401       .  A
C913        C918   1.409       .  A
C914        C915   1.384       .  A
C914        H919   1.087       .  S
C915        C916   1.411       .  A
C915        C922   1.438       .  S
C916        C917   1.405       .  A
C917        C918   1.403       .  A
C917        H920   1.081       .  S
C918        C921   1.444       .  S
C921        N923   1.157       .  T
C922        N924   1.156       .  T
C925        C926   1.395       .  A
C925        C930   1.418       .  A
C926        C927   1.405       .  A
C926        H931   1.085       .  S
C927        C928   1.431       .  A
C927        C934   1.442       .  S
C928        C929   1.404       .  A
C929        C930   1.409       .  A
C929        H932   1.085       .  S
C930        C933   1.441       .  S
C933        N935   1.157       .  T
C934        N936   1.157   1_655  T
C937        C938   1.383       .  A
C937        C942   1.428       .  A
C938        C939   1.391       .  A
C938        H943   1.085       .  S
C939        C940   1.439       .  A
C939        C946   1.440       .  S
C940        C941   1.397       .  A
C941        C942   1.404       .  A
C941        H944   1.084       .  S
C942        C945   1.445       .  S
C945        N947   1.157       .  T
C946        N948   1.155       .  T
C949        C950   1.402       .  A
C949        C954   1.409       .  A
C950        C951   1.395       .  A
C950        H955   1.079       .  S
C951        C952   1.414       .  A
C951        C958   1.446       .  S
C952        C953   1.411       .  A
C953        C954   1.407       .  A
C953        H956   1.084       .  S
C954        C957   1.442       .  S
C957        N959   1.157       .  T
C958        N960   1.158       .  T
C961        C962   1.391       .  A
C961        C966   1.417       .  A
C962        C963   1.394       .  A
C962        H967   1.086       .  S
C963        C964   1.427       .  A
C963        C970   1.442       .  S
C964        C965   1.401       .  A
C965        C966   1.397       .  A
C965        H968   1.085       .  S
C966        C969   1.445       .  S
C969        N971   1.157       .  T
C970        N972   1.156       .  T
C973        C974   1.407       .  A
C973        C978   1.420       .  A
C974        C975   1.407       .  A
C974        H979   1.084       .  S
C975        C976   1.411       .  A
C975        C982   1.441       .  S
C976        C977   1.399       .  A
C977        C978   1.393       .  A
C977        H980   1.085       .  S
C978        C981   1.443       .  S
C981        N983   1.158       .  T
C982        N984   1.157       .  T
C985        C986   1.410       .  A
C985        C990   1.408       .  A
C986        C987   1.406       .  A
C986        H991   1.082       .  S
C987        C988   1.410       .  A
C987        C994   1.443       .  S
C988        C989   1.410       .  A
C989        C990   1.406       .  A
C989        H992   1.082       .  S
C990        C993   1.442       .  S
C993        N995   1.157       .  T
C994        N996   1.157       .  T
C997        C998   1.411       .  A
C997       C1002   1.411       .  A
C998        C999   1.409       .  A
C998       H1003   1.085       .  S
C999       C1000   1.410       .  A
C999       C1006   1.442       .  S
C1000      C1001   1.400       .  A
C1001      C1002   1.396       .  A
C1001      H1004   1.078       .  S
C1002      C1005   1.443       .  S
C1005      N1007   1.157       .  T
C1006      N1008   1.157       .  T
C1009      C1010   1.384       .  A
C1009      C1014   1.441       .  A
C1010      C1011   1.394       .  A
C1010      H1015   1.085       .  S
C1011      C1012   1.437       .  A
C1011      C1018   1.442       .  S
C1012      C1013   1.379       .  A
C1013      C1014   1.398       .  A
C1013      H1016   1.081       .  S
C1014      C1017   1.440       .  S
C1017      N1019   1.155       .  T
C1018      N1020   1.156       .  T
C1021      C1022   1.405       .  A
C1021      C1026   1.404       .  A
C1022      C1023   1.394       .  A
C1022      H1027   1.082       .  S
C1023      C1024   1.407       .  A
C1023      C1030   1.440       .  S
C1024      C1025   1.412       .  A
C1025      C1026   1.404       .  A
C1025      H1028   1.082       .  S
C1026      C1029   1.442       .  S
C1029      N1031   1.157       .  T
C1030      N1032   1.155       .  T
C1033      C1034   1.406       .  A
C1033      C1038   1.438       .  A
C1034      C1035   1.411       .  A
C1034      H1039   1.083       .  S
C1035      C1036   1.416       .  A
C1035      C1042   1.447       .  S
C1036      C1037   1.378       .  A
C1037      C1038   1.395       .  A
C1037      H1040   1.086       .  S
C1038      C1041   1.433       .  S
C1041      N1043   1.157       .  T
C1042      N1044   1.157       .  T
C1045      C1046   1.410       .  A
C1045      C1050   1.410   1_556  A
C1046      C1047   1.411       .  A
C1046      H1051   1.083       .  S
C1047      C1048   1.416   1_556  A
C1047      C1054   1.443       .  S
C1048      C1049   1.414       .  A
C1049      C1050   1.411       .  A
C1049      H1052   1.085       .  S
C1050      C1053   1.442       .  S
C1053      N1055   1.157       .  T
C1054      N1056   1.157       .  T
C1057      C1058   1.422       .  A
C1057      C1062   1.396   1_554  A
C1058      C1059   1.414   1_554  A
C1058      H1063   1.083       .  S
C1059      C1060   1.404       .  A
C1059      C1066   1.439       .  S
C1060      C1061   1.419       .  A
C1061      C1062   1.389       .  A
C1061      H1064   1.065       .  S
C1062      C1065   1.446       .  S
C1065      N1067   1.157       .  T
C1066      N1068   1.157   1_556  T
C1069      C1070   1.409       .  A
C1069      C1074   1.404       .  A
C1070      C1071   1.406       .  A
C1070      H1075   1.080       .  S
C1071      C1072   1.410       .  A
C1071      C1078   1.442       .  S
C1072      C1073   1.408       .  A
C1073      C1074   1.388       .  A
C1073      H1076   1.086       .  S
C1074      C1077   1.442       .  S
C1077      N1079   1.156       .  T
C1078      N1080   1.157       .  T
C1081      C1082   1.410       .  A
C1081      C1086   1.406       .  A
C1082      C1083   1.397       .  A
C1082      H1087   1.077       .  S
C1083      C1084   1.405       .  A
C1083      C1090   1.442       .  S
C1084      C1085   1.416       .  A
C1085      C1086   1.412       .  A
C1085      H1088   1.084       .  S
C1086      C1089   1.441       .  S
C1089      N1091   1.157       .  T
C1090      N1092   1.156       .  T
C1093      C1094   1.405       .  A
C1093      C1098   1.431       .  A
C1094      C1095   1.416       .  A
C1094      H1099   1.077       .  S
C1095      C1096   1.420       .  A
C1095      C1102   1.438       .  S
C1096      C1097   1.391       .  A
C1097      C1098   1.390       .  A
C1097      H1100   1.086       .  S
C1098      C1101   1.435       .  S
C1101      N1103   1.155       .  T
C1102      N1104   1.156       .  T
C1105      C1106   1.410       .  A
C1105      C1110   1.401       .  A
C1106      C1107   1.398       .  A
C1106      H1111   1.080       .  S
C1107      C1108   1.403       .  A
C1107      C1114   1.439   1_556  S
C1108      C1109   1.415       .  A
C1109      C1110   1.402       .  A
C1109      H1112   1.081       .  S
C1110      C1113   1.442       .  S
C1113      N1115   1.157       .  T
C1114      N1116   1.155       .  T
C1117      C1118   1.406       .  A
C1117      C1122   1.419       .  A
C1118      C1119   1.406       .  A
C1118      H1123   1.085       .  S
C1119      C1120   1.412       .  A
C1119      C1126   1.440       .  S
C1120      C1121   1.401       .  A
C1121      C1122   1.400       .  A
C1121      H1124   1.083       .  S
C1122      C1125   1.443       .  S
C1125      N1127   1.157       .  T
C1126      N1128   1.157       .  T
C1129      C1130   1.407       .  A
C1129      C1134   1.407       .  A
C1130      C1131   1.410       .  A
C1130      H1135   1.080       .  S
C1131      C1132   1.411       .  A
C1131      C1138   1.441       .  S
C1132      C1133   1.404       .  A
C1133      C1134   1.400       .  A
C1133      H1136   1.084       .  S
C1134      C1137   1.437       .  S
C1137      N1139   1.155       .  T
C1138      N1140   1.157       .  T
C1141      C1142   1.413       .  A
C1141      C1146   1.406       .  A
C1142      C1143   1.416       .  A
C1142      H1147   1.083       .  S
C1143      C1144   1.412       .  A
C1143      C1150   1.441       .  S
C1144      C1145   1.400       .  A
C1145      C1146   1.395       .  A
C1145      H1148   1.070       .  S
C1146      C1149   1.442       .  S
C1149      N1151   1.156       .  T
C1150      N1152   1.157       .  T
C1153      C1154   1.412       .  A
C1153      C1158   1.405       .  A
C1154      C1155   1.408       .  A
C1154      H1159   1.085       .  S
C1155      C1156   1.412       .  A
C1155      C1162   1.438       .  S
C1156      C1157   1.416       .  A
C1157      C1158   1.408       .  A
C1157      H1160   1.082       .  S
C1158      C1161   1.442       .  S
C1161      N1163   1.157       .  T
C1162      N1164   1.155       .  T
C1165      C1166   1.386       .  A
C1165      C1170   1.438       .  A
C1166      C1167   1.395       .  A
C1166      H1171   1.084       .  S
C1167      C1168   1.430       .  A
C1167      C1174   1.439       .  S
C1168      C1169   1.388       .  A
C1169      C1170   1.403       .  A
C1169      H1172   1.085       .  S
C1170      C1173   1.437       .  S
C1173      N1175   1.157       .  T
C1174      N1176   1.155       .  T
C1177      C1178   1.382       .  A
C1177      C1182   1.428       .  A
C1178      C1179   1.386       .  A
C1178      H1183   1.087       .  S
C1179      C1180   1.428       .  A
C1179      C1186   1.430       .  S
C1180      C1181   1.403       .  A
C1181      C1182   1.419       .  A
C1181      H1184   1.083       .  S
C1182      C1185   1.439       .  S
C1185      N1187   1.156       .  T
C1186      N1188   1.153       .  T
C1189      C1190   1.412       .  A
C1189      C1194   1.416       .  A
C1190      C1191   1.405       .  A
C1190      H1195   1.079       .  S
C1191      C1192   1.403       .  A
C1191      C1198   1.442       .  S
C1192      C1193   1.409       .  A
C1193      C1194   1.405       .  A
C1193      H1196   1.083       .  S
C1194      C1197   1.444       .  S
C1197      N1199   1.157       .  T
C1198      N1200   1.157       .  T
C1201      C1202   1.393       .  A
C1201      C1206   1.431       .  A
C1202      C1203   1.402       .  A
C1202      H1207   1.085       .  S
C1203      C1204   1.432       .  A
C1203      C1210   1.442       .  S
C1204      C1205   1.380       .  A
C1205      C1206   1.390       .  A
C1205      H1208   1.087       .  S
C1206      C1209   1.433       .  S
C1209      N1211   1.156       .  T
C1210      N1212   1.157   1_565  T
C1213      C1214   1.416       .  A
C1213      C1218   1.408       .  A
C1214      C1215   1.399       .  A
C1214      H1219   1.085       .  S
C1215      C1216   1.401       .  A
C1215      C1222   1.443       .  S
C1216      C1217   1.408       .  A
C1217      C1218   1.398       .  A
C1217      H1220   1.081       .  S
C1218      C1221   1.443       .  S
C1221      N1223   1.157       .  T
C1222      N1224   1.157       .  T
C1225      C1226   1.399       .  A
C1225      C1230   1.411       .  A
C1226      C1227   1.375       .  A
C1226      H1231   1.086       .  S
C1227      C1228   1.414       .  A
C1227      C1234   1.445       .  S
C1228      C1229   1.409       .  A
C1229      C1230   1.406       .  A
C1229      H1232   1.084       .  S
C1230      C1233   1.441       .  S
C1233      N1235   1.157       .  T
C1234      N1236   1.159       .  T
C1237      C1238   1.414       .  A
C1237      C1242   1.406       .  A
C1238      C1239   1.395       .  A
C1238      H1243   1.084       .  S
C1239      C1240   1.397       .  A
C1239      C1246   1.442       .  S
C1240      C1241   1.401       .  A
C1241      C1242   1.389       .  A
C1241      H1244   1.082       .  S
C1242      C1245   1.444       .  S
C1245      N1247   1.158       .  T
C1246      N1248   1.157       .  T
C1249      C1250   1.408       .  A
C1249      C1254   1.410       .  A
C1250      C1251   1.405       .  A
C1250      H1255   1.079       .  S
C1251      C1252   1.406       .  A
C1251      C1258   1.442       .  S
C1252      C1253   1.400       .  A
C1253      C1254   1.391       .  A
C1253      H1256   1.083       .  S
C1254      C1257   1.439       .  S
C1257      N1259   1.155       .  T
C1258      N1260   1.157       .  T
C1261      C1262   1.407       .  A
C1261      C1266   1.409       .  A
C1262      C1263   1.407       .  A
C1262      H1267   1.083       .  S
C1263      C1264   1.418       .  A
C1263      C1270   1.444       .  S
C1264      C1265   1.416       .  A
C1265      C1266   1.412       .  A
C1265      H1268   1.084       .  S
C1266      C1269   1.442       .  S
C1269      N1271   1.157       .  T
C1270      N1272   1.157       .  T
C1273      C1274   1.398       .  A
C1273      C1278   1.440       .  A
C1274      C1275   1.402       .  A
C1274      H1279   1.084       .  S
C1275      C1276   1.418       .  A
C1275      C1282   1.435       .  S
C1276      C1277   1.383       .  A
C1277      C1278   1.400       .  A
C1277      H1280   1.086       .  S
C1278      C1281   1.437       .  S
C1281      N1283   1.157       .  T
C1282      N1284   1.155       .  T
C1285      C1286   1.389       .  A
C1285      C1290   1.408       .  A
C1286      C1287   1.381       .  A
C1286      H1291   1.088       .  S
C1287      C1288   1.417       .  A
C1287      C1294   1.439       .  S
C1288      C1289   1.408       .  A
C1289      C1290   1.403       .  A
C1289      H1292   1.084       .  S
C1290      C1293   1.442       .  S
C1293      N1295   1.157       .  T
C1294      N1296   1.156       .  T
C1297      C1298   1.405       .  A
C1297      C1302   1.412       .  A
C1298      C1299   1.403       .  A
C1298      H1303   1.083       .  S
C1299      C1300   1.414       .  A
C1299      C1306   1.443   1_556  S
C1300      C1301   1.411       .  A
C1301      C1302   1.413       .  A
C1301      H1304   1.084       .  S
C1302      C1305   1.441       .  S
C1305      N1307   1.157       .  T
C1306      N1308   1.157       .  T
C1309      C1310   1.408       .  A
C1309      C1314   1.405       .  A
C1310      C1311   1.388       .  A
C1310      H1315   1.075       .  S
C1311      C1312   1.409       .  A
C1311      C1318   1.446       .  S
C1312      C1313   1.417       .  A
C1313      C1314   1.414       .  A
C1313      H1316   1.084       .  S
C1314      C1317   1.441       .  S
C1317      N1319   1.157       .  T
C1318      N1320   1.158       .  T
C1321      C1322   1.410       .  A
C1321      C1326   1.413       .  A
C1322      C1323   1.415       .  A
C1322      H1327   1.084       .  S
C1323      C1324   1.416       .  A
C1323      C1330   1.443       .  S
C1324      C1325   1.399       .  A
C1325      C1326   1.402       .  A
C1325      H1328   1.085       .  S
C1326      C1329   1.428       .  S
C1329      N1331   1.151       .  T
C1330      N1332   1.157       .  T
C1333      C1334   1.405       .  A
C1333      C1338   1.414       .  A
C1334      C1335   1.394       .  A
C1334      H1339   1.086       .  S
C1335      C1336   1.418       .  A
C1335      C1342   1.445       .  S
C1336      C1337   1.408       .  A
C1337      C1338   1.408       .  A
C1337      H1340   1.084       .  S
C1338      C1341   1.440       .  S
C1341      N1343   1.156   1_655  T
C1342      N1344   1.157       .  T
C1345      C1346   1.418       .  A
C1345      C1350   1.411       .  A
C1346      C1347   1.399       .  A
C1346      H1351   1.084       .  S
C1347      C1348   1.399       .  A
C1347      C1354   1.443       .  S
C1348      C1349   1.412       .  A
C1349      C1350   1.405       .  A
C1349      H1352   1.084       .  S
C1350      C1353   1.443       .  S
C1353      N1355   1.157       .  T
C1354      N1356   1.157       .  T
C1357      C1358   1.405       .  A
C1357      C1362   1.422       .  A
C1358      C1359   1.401       .  A
C1358      H1363   1.085       .  S
C1359      C1360   1.418       .  A
C1359      C1366   1.442       .  S
C1360      C1361   1.400       .  A
C1361      C1362   1.408       .  A
C1361      H1364   1.085       .  S
C1362      C1365   1.435       .  S
C1365      N1367   1.155       .  T
C1366      N1368   1.158       .  T
C1369      C1370   1.409       .  A
C1369      C1374   1.414       .  A
C1370      C1371   1.408       .  A
C1370      H1375   1.085       .  S
C1371      C1372   1.415       .  A
C1371      C1378   1.441       .  S
C1372      C1373   1.400       .  A
C1373      C1374   1.386       .  A
C1373      H1376   1.085       .  S
C1374      C1377   1.447       .  S
C1377      N1379   1.159       .  T
C1378      N1380   1.157       .  T
C1381      C1382   1.409       .  A
C1381      C1386   1.411       .  A
C1382      C1383   1.406       .  A
C1382      H1387   1.079       .  S
C1383      C1384   1.408       .  A
C1383      C1390   1.442       .  S
C1384      C1385   1.404       .  A
C1385      C1386   1.397       .  A
C1385      H1388   1.077       .  S
C1386      C1389   1.446       .  S
C1389      N1391   1.157       .  T
C1390      N1392   1.157       .  T
C1393      C1394   1.409       .  A
C1393      C1398   1.414       .  A
C1394      C1395   1.405       .  A
C1394      H1399   1.083       .  S
C1395      C1396   1.409       .  A
C1395      C1402   1.442       .  S
C1396      C1397   1.405       .  A
C1397      C1398   1.393       .  A
C1397      H1400   1.084       .  S
C1398      C1401   1.446       .  S
C1401      N1403   1.157       .  T
C1402      N1404   1.157       .  T
C1405      C1406   1.396       .  A
C1405      C1410   1.415       .  A
C1406      C1407   1.403       .  A
C1406      H1411   1.085       .  S
C1407      C1408   1.426       .  A
C1407      C1414   1.443       .  S
C1408      C1409   1.399       .  A
C1409      C1410   1.399       .  A
C1409      H1412   1.086       .  S
C1410      C1413   1.441       .  S
C1413      N1415   1.157       .  T
C1414      N1416   1.157       .  T
C1417      C1418   1.398       .  A
C1417      C1422   1.431       .  A
C1418      C1419   1.409       .  A
C1418      H1423   1.084       .  S
C1419      C1420   1.430       .  A
C1419      C1426   1.444       .  S
C1420      C1421   1.379       .  A
C1421      C1422   1.389       .  A
C1421      H1424   1.088       .  S
C1422      C1425   1.431       .  S
C1425      N1427   1.156       .  T
C1426      N1428   1.157       .  T
C1429      C1430   1.392       .  A
C1429      C1434   1.437       .  A
C1430      C1431   1.407       .  A
C1430      H1435   1.084       .  S
C1431      C1432   1.440       .  A
C1431      C1438   1.448       .  S
C1432      C1433   1.393       .  A
C1433      C1434   1.406       .  A
C1433      H1436   1.083       .  S
C1434      C1437   1.445       .  S
C1437      N1439   1.157       .  T
C1438      N1440   1.157       .  T
C1441      C1442   1.405       .  A
C1441      C1446   1.418       .  A
C1442      C1443   1.397       .  A
C1442      H1447   1.085       .  S
C1443      C1444   1.418       .  A
C1443      C1450   1.442       .  S
C1444      C1445   1.406       .  A
C1445      C1446   1.410       .  A
C1445      H1448   1.084       .  S
C1446      C1449   1.442       .  S
C1449      N1451   1.157       .  T
C1450      N1452   1.158       .  T
C1453      C1454   1.412       .  A
C1453      C1458   1.407       .  A
C1454      C1455   1.412       .  A
C1454      H1459   1.084       .  S
C1455      C1456   1.411       .  A
C1455      C1462   1.441       .  S
C1456      C1457   1.400       .  A
C1457      C1458   1.394       .  A
C1457      H1460   1.075       .  S
C1458      C1461   1.441       .  S
C1461      N1463   1.156       .  T
C1462      N1464   1.157       .  T
C1465      C1466   1.402       .  A
C1465      C1470   1.411       .  A
C1466      C1467   1.399       .  A
C1466      H1471   1.085       .  S
C1467      C1468   1.422       .  A
C1467      C1474   1.441       .  S
C1468      C1469   1.412       .  A
C1469      C1470   1.408       .  A
C1469      H1472   1.085       .  S
C1470      C1473   1.443       .  S
C1473      N1475   1.158       .  T
C1474      N1476   1.157       .  T
C1477      C1478   1.400       .  A
C1477      C1482   1.415   1_556  A
C1478      C1479   1.399       .  A
C1478      H1483   1.077       .  S
C1479      C1480   1.419   1_556  A
C1479      C1486   1.445       .  S
C1480      C1481   1.414       .  A
C1481      C1482   1.415       .  A
C1481      H1484   1.083       .  S
C1482      C1485   1.442       .  S
C1485      N1487   1.157       .  T
C1486      N1488   1.157       .  T
C1489      C1490   1.407       .  A
C1489      C1494   1.425       .  A
C1490      C1491   1.403       .  A
C1490      H1495   1.085       .  S
C1491      C1492   1.413       .  A
C1491      C1498   1.442       .  S
C1492      C1493   1.397       .  A
C1493      C1494   1.399       .  A
C1493      H1496   1.086       .  S
C1494      C1497   1.440       .  S
C1497      N1499   1.158       .  T
C1498      N1500   1.157       .  T
C1501      C1502   1.408       .  A
C1501      C1506   1.395       .  A
C1502      C1503   1.397       .  A
C1502      H1507   1.081       .  S
C1503      C1504   1.406   1_556  A
C1503      C1510   1.442       .  S
C1504      C1505   1.418       .  A
C1505      C1506   1.392   1_554  A
C1505      H1508   1.083       .  S
C1506      C1509   1.443   1_556  S
C1509      N1511   1.157       .  T
C1510      N1512   1.157       .  T
C1513      C1514   1.408       .  A
C1513      C1518   1.404       .  A
C1514      C1515   1.397       .  A
C1514      H1519   1.082       .  S
C1515      C1516   1.404       .  A
C1515      C1522   1.443       .  S
C1516      C1517   1.407       .  A
C1517      C1518   1.402       .  A
C1517      H1520   1.079       .  S
C1518      C1521   1.442       .  S
C1521      N1523   1.157       .  T
C1522      N1524   1.157       .  T
C1525      C1526   1.399   1_554  A
C1525      C1530   1.404       .  A
C1526      C1527   1.397       .  A
C1526      H1531   1.085       .  S
C1527      C1528   1.419       .  A
C1527      C1534   1.443       .  S
C1528      C1529   1.409       .  A
C1529      C1530   1.405   1_556  A
C1529      H1532   1.084       .  S
C1530      C1533   1.441       .  S
C1533      N1535   1.157       .  T
C1534      N1536   1.157       .  T
C1537      C1538   1.411       .  A
C1537      C1542   1.422       .  A
C1538      C1539   1.407   1_556  A
C1538      H1543   1.085       .  S
C1539      C1540   1.409   1_554  A
C1539      C1546   1.440       .  S
C1540      C1541   1.385       .  A
C1541      C1542   1.379       .  A
C1541      H1544   1.087       .  S
C1542      C1545   1.432       .  S
C1545      N1547   1.158       .  T
C1546      N1548   1.157       .  T
C1549      C1550   1.411       .  A
C1549      C1554   1.407       .  A
C1550      C1551   1.399       .  A
C1550      H1555   1.085       .  S
C1551      C1552   1.405       .  A
C1551      C1558   1.443       .  S
C1552      C1553   1.408       .  A
C1553      C1554   1.399       .  A
C1553      H1556   1.083       .  S
C1554      C1557   1.443       .  S
C1557      N1559   1.157       .  T
C1558      N1560   1.157       .  T
C1561      C1562   1.413       .  A
C1561      C1566   1.413       .  A
C1562      C1563   1.408       .  A
C1562      H1567   1.084       .  S
C1563      C1564   1.411       .  A
C1563      C1570   1.442       .  S
C1564      C1565   1.398       .  A
C1565      C1566   1.392       .  A
C1565      H1568   1.069       .  S
C1566      C1569   1.445       .  S
C1569      N1571   1.157       .  T
C1570      N1572   1.157       .  T
C1573      C1574   1.419       .  A
C1573      C1578   1.406       .  A
C1574      C1575   1.401       .  A
C1574      H1579   1.084       .  S
C1575      C1576   1.398       .  A
C1575      C1582   1.443       .  S
C1576      C1577   1.409       .  A
C1577      C1578   1.394       .  A
C1577      H1580   1.082       .  S
C1578      C1581   1.441       .  S
C1581      N1583   1.157       .  T
C1582      N1584   1.157       .  T
C1585      C1586   1.392       .  A
C1585      C1590   1.408       .  A
C1586      C1587   1.387       .  A
C1586      H1591   1.086       .  S
C1587      C1588   1.417       .  A
C1587      C1594   1.431       .  S
C1588      C1589   1.418       .  A
C1589      C1590   1.416       .  A
C1589      H1592   1.084       .  S
C1590      C1593   1.441       .  S
C1593      N1595   1.157       .  T
C1594      N1596   1.155       .  T
C1597      C1598   1.413       .  A
C1597      C1602   1.403       .  A
C1598      C1599   1.399       .  A
C1598      H1603   1.085       .  S
C1599      C1600   1.400       .  A
C1599      C1606   1.443       .  S
C1600      C1601   1.407       .  A
C1601      C1602   1.395       .  A
C1601      H1604   1.081       .  S
C1602      C1605   1.441       .  S
C1605      N1607   1.156       .  T
C1606      N1608   1.157       .  T
C1609      C1610   1.402       .  A
C1609      C1614   1.406       .  A
C1610      C1611   1.388       .  A
C1610      H1615   1.080       .  S
C1611      C1612   1.396       .  A
C1611      C1618   1.439       .  S
C1612      C1613   1.400       .  A
C1613      C1614   1.403       .  A
C1613      H1616   1.078       .  S
C1614      C1617   1.442       .  S
C1617      N1619   1.157       .  T
C1618      N1620   1.156       .  T
C1621      C1622   1.397       .  A
C1621      C1626   1.418       .  A
C1622      C1623   1.409       .  A
C1622      H1627   1.085       .  S
C1623      C1624   1.431       .  A
C1623      C1630   1.443       .  S
C1624      C1625   1.405       .  A
C1625      C1626   1.410       .  A
C1625      H1628   1.082       .  S
C1626      C1629   1.442       .  S
C1629      N1631   1.157       .  T
C1630      N1632   1.157       .  T
C1633      C1634   1.407       .  A
C1633      C1638   1.397       .  A
C1634      C1635   1.398       .  A
C1634      H1639   1.082       .  S
C1635      C1636   1.409       .  A
C1635      C1642   1.443   1_556  S
C1636      C1637   1.417       .  A
C1637      C1638   1.394       .  A
C1637      H1640   1.082       .  S
C1638      C1641   1.443       .  S
C1641      N1643   1.157       .  T
C1642      N1644   1.157       .  T
C1645      C1646   1.408       .  A
C1645      C1650   1.404       .  A
C1646      C1647   1.401       .  A
C1646      H1651   1.080       .  S
C1647      C1648   1.408       .  A
C1647      C1654   1.441   1_556  S
C1648      C1649   1.416       .  A
C1649      C1650   1.407       .  A
C1649      H1652   1.083       .  S
C1650      C1653   1.442       .  S
C1653      N1655   1.157       .  T
C1654      N1656   1.156       .  T
C1657      C1658   1.411       .  A
C1657      C1662   1.416       .  A
C1658      C1659   1.409       .  A
C1658      H1663   1.083       .  S
C1659      C1660   1.410       .  A
C1659      C1666   1.442       .  S
C1660      C1661   1.403       .  A
C1661      C1662   1.396       .  A
C1661      H1664   1.081       .  S
C1662      C1665   1.446       .  S
C1665      N1667   1.157       .  T
C1666      N1668   1.157       .  T
C1669      C1670   1.417       .  A
C1669      C1674   1.404       .  A
C1670      C1671   1.400       .  A
C1670      H1675   1.085       .  S
C1671      C1672   1.402       .  A
C1671      C1678   1.443       .  S
C1672      C1673   1.408       .  A
C1673      C1674   1.397       .  A
C1673      H1676   1.076       .  S
C1674      C1677   1.442       .  S
C1677      N1679   1.157       .  T
C1678      N1680   1.157       .  T
C1681      C1682   1.405       .  A
C1681      C1686   1.415       .  A
C1682      C1683   1.405       .  A
C1682      H1687   1.083       .  S
C1683      C1684   1.421       .  A
C1683      C1690   1.444       .  S
C1684      C1685   1.406       .  A
C1685      C1686   1.411       .  A
C1685      H1688   1.081       .  S
C1686      C1689   1.443       .  S
C1689      N1691   1.157       .  T
C1690      N1692   1.157       .  T
C1693      C1694   1.414       .  A
C1693      C1698   1.420       .  A
C1694      C1695   1.415       .  A
C1694      H1699   1.084       .  S
C1695      C1696   1.412       .  A
C1695      C1702   1.442       .  S
C1696      C1697   1.400       .  A
C1697      C1698   1.400       .  A
C1697      H1700   1.084       .  S
C1698      C1701   1.440       .  S
C1701      N1703   1.156       .  T
C1702      N1704   1.157       .  T
C1705      C1706   1.399       .  A
C1705      C1710   1.400       .  A
C1706      C1707   1.387       .  A
C1706      H1711   1.081       .  S
C1707      C1708   1.406       .  A
C1707      C1714   1.436       .  S
C1708      C1709   1.413       .  A
C1709      C1710   1.403       .  A
C1709      H1712   1.081       .  S
C1710      C1713   1.442       .  S
C1713      N1715   1.157       .  T
C1714      N1716   1.153       .  T
C1717      C1718   1.406       .  A
C1717      C1722   1.399       .  A
C1718      C1719   1.399       .  A
C1718      H1723   1.082       .  S
C1719      C1720   1.407       .  A
C1719      C1726   1.435       .  S
C1720      C1721   1.419       .  A
C1721      C1722   1.400       .  A
C1721      H1724   1.083       .  S
C1722      C1725   1.443       .  S
C1725      N1727   1.157       .  T
C1726      N1728   1.154       .  T
C1729      C1730   1.407       .  A
C1729      C1734   1.409       .  A
C1730      C1731   1.403       .  A
C1730      H1735   1.081       .  S
C1731      C1732   1.406       .  A
C1731      C1738   1.435       .  S
C1732      C1733   1.412       .  A
C1733      C1734   1.412       .  A
C1733      H1736   1.081       .  S
C1734      C1737   1.441       .  S
C1737      N1739   1.157       .  T
C1738      N1740   1.154       .  T
C1741      C1742   1.398       .  A
C1741      C1746   1.413       .  A
C1742      C1743   1.400       .  A
C1742      H1747   1.079       .  S
C1743      C1744   1.414       .  A
C1743      C1750   1.446       .  S
C1744      C1745   1.412       .  A
C1745      C1746   1.412       .  A
C1745      H1748   1.082       .  S
C1746      C1749   1.442       .  S
C1749      N1751   1.157       .  T
C1750      N1752   1.158       .  T
C1753      C1754   1.405       .  A
C1753      C1758   1.417       .  A
C1754      C1755   1.411   1_556  A
C1754      H1759   1.084   1_556  S
C1755      C1756   1.419       .  A
C1755      C1762   1.442       .  S
C1756      C1757   1.398   1_554  A
C1757      C1758   1.402       .  A
C1757      H1760   1.085       .  S
C1758      C1761   1.435       .  S
C1761      N1763   1.155       .  T
C1762      N1764   1.157       .  T
C1765      C1766   1.394       .  A
C1765      C1770   1.412       .  A
C1766      C1767   1.398       .  A
C1766      H1771   1.085       .  S
C1767      C1768   1.424       .  A
C1767      C1774   1.442       .  S
C1768      C1769   1.396       .  A
C1769      C1770   1.393       .  A
C1769      H1772   1.084       .  S
C1770      C1773   1.437       .  S
C1773      N1775   1.156       .  T
C1774      N1776   1.157   1_655  T
C1777      C1778   1.395   1_554  A
C1777      C1782   1.416       .  A
C1778      C1779   1.388       .  A
C1778      H1783   1.085       .  S
C1779      C1780   1.411       .  A
C1779      C1786   1.436       .  S
C1780      C1781   1.401       .  A
C1781      C1782   1.406   1_556  A
C1781      H1784   1.084       .  S
C1782      C1785   1.438       .  S
C1785      N1787   1.156       .  T
C1786      N1788   1.155       .  T
C1789      C1790   1.408       .  A
C1789      C1794   1.406       .  A
C1790      C1791   1.400       .  A
C1790      H1795   1.081       .  S
C1791      C1792   1.408       .  A
C1791      C1798   1.442       .  S
C1792      C1793   1.413       .  A
C1793      C1794   1.408       .  A
C1793      H1796   1.085       .  S
C1794      C1797   1.441       .  S
C1797      N1799   1.157       .  T
C1798      N1800   1.156       .  T
C1801      C1802   1.407       .  A
C1801      C1806   1.410       .  A
C1802      C1803   1.403       .  A
C1802      H1807   1.082       .  S
C1803      C1804   1.413       .  A
C1803      C1810   1.445       .  S
C1804      C1805   1.411       .  A
C1805      C1806   1.409       .  A
C1805      H1808   1.084       .  S
C1806      C1809   1.442       .  S
C1809      N1811   1.157       .  T
C1810      N1812   1.157       .  T
C1813      C1814   1.398       .  A
C1813      C1818   1.412       .  A
C1814      C1815   1.391       .  A
C1814      H1819   1.079       .  S
C1815      C1816   1.409       .  A
C1815      C1822   1.442       .  S
C1816      C1817   1.403       .  A
C1817      C1818   1.406       .  A
C1817      H1820   1.081       .  S
C1818      C1821   1.443       .  S
C1821      N1823   1.157       .  T
C1822      N1824   1.157       .  T
C1825      C1826   1.402       .  A
C1825      C1830   1.414       .  A
C1826      C1827   1.393       .  A
C1826      H1831   1.086       .  S
C1827      C1828   1.419       .  A
C1827      C1834   1.442       .  S
C1828      C1829   1.410       .  A
C1829      C1830   1.411       .  A
C1829      H1832   1.084       .  S
C1830      C1833   1.440       .  S
C1833      N1835   1.157   1_655  T
C1834      N1836   1.158       .  T
C1837      C1838   1.400       .  A
C1837      C1842   1.431       .  A
C1838      C1839   1.400       .  A
C1838      H1843   1.086       .  S
C1839      C1840   1.416       .  A
C1839      C1846   1.446       .  S
C1840      C1841   1.384       .  A
C1841      C1842   1.391       .  A
C1841      H1844   1.085       .  S
C1842      C1845   1.440       .  S
C1845      N1847   1.156       .  T
C1846      N1848   1.158       .  T
C1849      C1850   1.420       .  A
C1849      C1854   1.403       .  A
C1850      C1851   1.398       .  A
C1850      H1855   1.066       .  S
C1851      C1852   1.398       .  A
C1851      C1858   1.444       .  S
C1852      C1853   1.427       .  A
C1853      C1854   1.414       .  A
C1853      H1856   1.085       .  S
C1854      C1857   1.441       .  S
C1857      N1859   1.157       .  T
C1858      N1860   1.157       .  T
C1861      C1862   1.415       .  A
C1861      C1866   1.401       .  A
C1862      C1863   1.398       .  A
C1862      H1867   1.072       .  S
C1863      C1864   1.399       .  A
C1863      C1870   1.444       .  S
C1864      C1865   1.422       .  A
C1865      C1866   1.408       .  A
C1865      H1868   1.083       .  S
C1866      C1869   1.441       .  S
C1869      N1871   1.157       .  T
C1870      N1872   1.157       .  T
C1873      C1874   1.411       .  A
C1873      C1878   1.403       .  A
C1874      C1875   1.407       .  A
C1874      H1879   1.085       .  S
C1875      C1876   1.408       .  A
C1875      C1882   1.442       .  S
C1876      C1877   1.415       .  A
C1877      C1878   1.401       .  A
C1877      H1880   1.085       .  S
C1878      C1881   1.443       .  S
C1881      N1883   1.157       .  T
C1882      N1884   1.157       .  T
C1885      C1886   1.411       .  A
C1885      C1890   1.413       .  A
C1886      C1887   1.409       .  A
C1886      H1891   1.081       .  S
C1887      C1888   1.410       .  A
C1887      C1894   1.442       .  S
C1888      C1889   1.402       .  A
C1889      C1890   1.398       .  A
C1889      H1892   1.082       .  S
C1890      C1893   1.440   1_556  S
C1893      N1895   1.156       .  T
C1894      N1896   1.157       .  T
C1897      C1898   1.403       .  A
C1897      C1902   1.416       .  A
C1898      C1899   1.407       .  A
C1898      H1903   1.084   1_556  S
C1899      C1900   1.418       .  A
C1899      C1906   1.435       .  S
C1900      C1901   1.410       .  A
C1901      C1902   1.414       .  A
C1901      H1904   1.084       .  S
C1902      C1905   1.441       .  S
C1905      N1907   1.157       .  T
C1906      N1908   1.154       .  T
C1909      C1910   1.405       .  A
C1909      C1914   1.406       .  A
C1910      C1911   1.400       .  A
C1910      H1915   1.076       .  S
C1911      C1912   1.408       .  A
C1911      C1918   1.442       .  S
C1912      C1913   1.413       .  A
C1913      C1914   1.408       .  A
C1913      H1916   1.080       .  S
C1914      C1917   1.442       .  S
C1917      N1919   1.157       .  T
C1918      N1920   1.157       .  T
C1921      C1922   1.411       .  A
C1921      C1926   1.422       .  A
C1922      C1923   1.409       .  A
C1922      H1927   1.084       .  S
C1923      C1924   1.410       .  A
C1923      C1930   1.442       .  S
C1924      C1925   1.397       .  A
C1925      C1926   1.391       .  A
C1925      H1928   1.085       .  S
C1926      C1929   1.441       .  S
C1929      N1931   1.158       .  T
C1930      N1932   1.157       .  T
C1933      C1934   1.395       .  A
C1933      C1938   1.409       .  A
C1934      C1935   1.389       .  A
C1934      H1939   1.070       .  S
C1935      C1936   1.413       .  A
C1935      C1942   1.445       .  S
C1936      C1937   1.415       .  A
C1937      C1938   1.413       .  A
C1937      H1940   1.084       .  S
C1938      C1941   1.441       .  S
C1941      N1943   1.157       .  T
C1942      N1944   1.157       .  T
C1945      C1946   1.396       .  A
C1945      C1950   1.423       .  A
C1946      C1947   1.398       .  A
C1946      H1951   1.085       .  S
C1947      C1948   1.419       .  A
C1947      C1954   1.435       .  S
C1948      C1949   1.394       .  A
C1949      C1950   1.392       .  A
C1949      H1952   1.086       .  S
C1950      C1953   1.439       .  S
C1953      N1955   1.158       .  T
C1954      N1956   1.154       .  T
C1957      C1958   1.402       .  A
C1957      C1962   1.411       .  A
C1958      C1959   1.398       .  A
C1958      H1963   1.085       .  S
C1959      C1960   1.410   1_556  A
C1959      C1966   1.440       .  S
C1960      C1961   1.406       .  A
C1961      C1962   1.379   1_554  A
C1961      H1964   1.085       .  S
C1962      C1965   1.449       .  S
C1965      N1967   1.157   1_556  T
C1966      N1968   1.156       .  T
C1969      C1970   1.380       .  A
C1969      C1974   1.436       .  A
C1970      C1971   1.406       .  A
C1970      H1975   1.075       .  S
C1971      C1972   1.436       .  A
C1971      C1978   1.445       .  S
C1972      C1973   1.392       .  A
C1973      C1974   1.402       .  A
C1973      H1976   1.084   1_556  S
C1974      C1977   1.446       .  S
C1977      N1979   1.157       .  T
C1978      N1980   1.157       .  T
