geometry optimzed in LAMMPS
_audit_creation_date              2020-11-30 
_audit_creation_method            'lammps2cif' 
_symmetry_space_group_name_H-M    'P1' 
_symmetry_Int_Tables_number       1 
_symmetry_cell_setting            triclinic 
loop_ 
_symmetry_equiv_pos_as_xyz 
  x,y,z 
_cell_length_a                    40.82211933 
_cell_length_b                    40.42549593060629 
_cell_length_c                    40.57541849436007 
_cell_angle_alpha                 89.9319387180523 
_cell_angle_beta                  89.96937039317727 
_cell_angle_gamma                 89.81836124936234 
loop_ 
_atom_site_label 
_atom_site_type_symbol 
_atom_site_fract_x 
_atom_site_fract_y 
_atom_site_fract_z 
_atom_site_charge 
C1          C  0.33379775  0.67283760  0.16846310     0.86200
C2          C  0.35613308  0.64866596  0.18860554    -0.54000
C3          C  0.37476571  0.62861589  0.16909334     0.09200
C4          C  0.36921022  0.63532427  0.13238131     0.20100
C5          C  0.35787162  0.69214874  0.14535669    -0.54700
C6          C  0.37663537  0.67184654  0.12642295     0.09300
C7          C  0.31345312  0.65024985  0.14492169    -0.54300
C8          C  0.33262813  0.63056592  0.12555813     0.09800
H9          H  0.35690998  0.64766840  0.21532619     0.14300
H10         H  0.38451793  0.61935936  0.11691125     0.00100
H11         H  0.36028804  0.71878310  0.14414352     0.14600
H12         H  0.28689646  0.65035461  0.14356637     0.14400
C13         C  0.56145918  0.44390542  0.16643226     0.86200
C14         C  0.58045509  0.46731398  0.14223603    -0.54000
C15         C  0.56020805  0.48654797  0.12358421     0.09200
C16         C  0.52410882  0.48073088  0.13140974     0.20100
C17         C  0.53903095  0.46747486  0.18722333    -0.54700
C18         C  0.51928550  0.48707532  0.16831208     0.09300
C19         C  0.53743546  0.42408940  0.14379151    -0.54300
C20         C  0.51762338  0.44402404  0.12521442     0.09800
H21         H  0.60679644  0.46841813  0.13947579     0.14300
H22         H  0.50826283  0.49660956  0.11641605     0.00100
H23         H  0.53904426  0.46842332  0.21395731     0.14600
H24         H  0.53662956  0.39728763  0.14252784     0.14400
C25         C  0.55955441  0.67231538  0.16722675     0.86200
C26         C  0.53658350  0.69193717  0.14315655    -0.54000
C27         C  0.51762153  0.67184121  0.12436360     0.09200
C28         C  0.52326853  0.63524596  0.13186737     0.20100
C29         C  0.53613264  0.64978316  0.18783418    -0.54700
C30         C  0.51677358  0.63020852  0.16871264     0.09300
C31         C  0.57930313  0.64814213  0.14456642    -0.54300
C32         C  0.55963814  0.62843865  0.12584339     0.09800
H33         H  0.53549750  0.71858223  0.14068556     0.14300
H34         H  0.50767682  0.61944462  0.11665719     0.00100
H35         H  0.53507158  0.64962590  0.21456513     0.14600
H36         H  0.60585247  0.64707508  0.14347247     0.14400
C37         C  0.33412013  0.44244608  0.16673320     0.86200
C38         C  0.35742868  0.42399798  0.14206006    -0.54000
C39         C  0.37594351  0.44479774  0.12353637     0.09200
C40         C  0.36955793  0.48106872  0.13165834     0.20100
C41         C  0.35740065  0.46507285  0.18751594    -0.54700
C42         C  0.37636181  0.48542741  0.16851051     0.09300
C43         C  0.31380000  0.46690604  0.14474828    -0.54300
C44         C  0.33296344  0.48748753  0.12623338     0.09800
H45         H  0.35941936  0.39745558  0.13928310     0.14300
H46         H  0.38482588  0.49728189  0.11646399     0.00100
H47         H  0.35885311  0.46453612  0.21421556     0.14600
H48         H  0.28723118  0.46757404  0.14400139     0.14400
O49         O  0.48336547  0.52002137  0.20645327    -0.73200
O50         O  0.41050117  0.59503191  0.20656269    -0.74200
O51         O  0.40969347  0.52097665  0.20640329    -0.62800
O52         O  0.48389176  0.59421740  0.20659718    -0.71200
O53         O  0.47603522  0.59410470  0.15302766    -0.70800
O54         O  0.41753309  0.52137814  0.15282438    -0.62000
O55         O  0.41078391  0.58751939  0.15291094    -0.74500
O56         O  0.48301175  0.52823789  0.15293538    -0.73300
Cu57       Cu  0.44686056  0.55754146  0.20939466     1.04600
Cu58       Cu  0.44685183  0.55780036  0.15204442     1.04300
C59         C  0.49445534  0.51300012  0.17754761     0.93000
C60         C  0.39946731  0.60247358  0.17774761     0.92100
C61         C  0.40243202  0.51001630  0.17752187     0.84300
C62         C  0.49101000  0.60541250  0.17773773     0.90600
C63         C  0.33179761  0.44508806  0.94045800     0.86200
C64         C  0.31297566  0.46829088  0.96490062    -0.54000
C65         C  0.33321504  0.48768056  0.98302684     0.09200
C66         C  0.36931550  0.48226746  0.97465244     0.20100
C67         C  0.35342548  0.46882001  0.91911213    -0.54700
C68         C  0.37314395  0.48874040  0.93764457     0.09300
C69         C  0.35657098  0.42550117  0.96251366    -0.54300
C70         C  0.37651859  0.44556704  0.98054881     0.09800
H71         H  0.28667259  0.46919183  0.96815609     0.14300
H72         H  0.38528887  0.49820917  0.98942887     0.00100
H73         H  0.35276869  0.46980538  0.89238915     0.14600
H74         H  0.35781828  0.39870571  0.96377290     0.14400
C75         C  0.56083975  0.44482182  0.93799185     0.86200
C76         C  0.53675092  0.46679150  0.91710346    -0.54000
C77         C  0.51629734  0.48585077  0.93603186     0.09200
C78         C  0.52288657  0.48127361  0.97287005     0.20100
C79         C  0.57939278  0.46975037  0.96079335    -0.54700
C80         C  0.55896526  0.48896931  0.97907144     0.09300
C81         C  0.53825311  0.42476946  0.96188786    -0.54300
C82         C  0.51829848  0.44449036  0.98051466     0.09800
H83         H  0.53580275  0.46663935  0.89037863     0.14300
H84         H  0.50696177  0.49716011  0.98783784     0.00100
H85         H  0.60572858  0.47206779  0.96270240     0.14600
H86         H  0.53854493  0.39800104  0.96400592     0.14400
C87         C  0.55737189  0.67285525  0.93752968     0.86200
C88         C  0.53537942  0.64878734  0.91725453    -0.54000
C89         C  0.51683178  0.62863380  0.93658016     0.09200
C90         C  0.52176622  0.63526173  0.97337312     0.20100
C91         C  0.53313792  0.69217556  0.96053077    -0.54700
C92         C  0.51440934  0.67185184  0.97946949     0.09300
C93         C  0.57753760  0.65014610  0.96140325    -0.54300
C94         C  0.55821278  0.63045351  0.98066524     0.09800
H95         H  0.53508359  0.64761304  0.89052892     0.14300
H96         H  0.50624697  0.61914860  0.98850164     0.00100
H97         H  0.53111052  0.71883083  0.96219048     0.14600
H98         H  0.60406912  0.65024324  0.96309336     0.14400
C99         C  0.33325548  0.67398662  0.94016949     0.86200
C100        C  0.31341998  0.64953628  0.96240724    -0.54000
C101        C  0.33300994  0.62928650  0.98087866     0.09200
C102        C  0.36948318  0.63577503  0.97491130     0.20100
C103        C  0.35618299  0.69287852  0.96456407    -0.54700
C104        C  0.37510183  0.67222100  0.98299381     0.09300
C105        C  0.35668553  0.65163930  0.91924879    -0.54300
C106        C  0.37605461  0.63155718  0.93801638     0.09800
H107        H  0.28686792  0.64886095  0.96360590     0.14300
H108        H  0.38517582  0.61939691  0.98966804     0.00100
H109        H  0.35731033  0.71947871  0.96741271     0.14600
H110        H  0.35796655  0.65219236  0.89253291     0.14400
O111        O  0.34999707  0.52298848  0.02436142    -0.73200
O112        O  0.34856873  0.59515599  0.08403207    -0.74200
O113        O  0.34888720  0.52906370  0.09042107    -0.62800
O114        O  0.34940704  0.58917483  0.01816308    -0.71200
O115        O  0.29600740  0.59657235  0.01767692    -0.70800
O116        O  0.29561780  0.52138214  0.09048789    -0.62000
O117        O  0.29526289  0.59535038  0.09170244    -0.74500
O118        O  0.29652666  0.52306772  0.01694906    -0.73300
Cu119      Cu  0.35014824  0.55912614  0.05429499     1.04600
Cu120      Cu  0.29302718  0.55911960  0.05419215     1.04300
C121        C  0.32518153  0.51204207  0.00940350     0.93000
C122        C  0.32388664  0.60628054  0.09917536     0.92100
C123        C  0.32424014  0.51391478  0.10162096     0.84300
C124        C  0.32462560  0.60380743  0.00642987     0.90600
O125        O  0.48223192  0.65502664  0.08339520    -0.73200
O126        O  0.41033887  0.65478483  0.02399671    -0.74200
O127        O  0.47575995  0.65483642  0.01742462    -0.62800
O128        O  0.41680624  0.65480956  0.09000572    -0.71200
O129        O  0.40964403  0.70881479  0.09027223    -0.70800
O130        O  0.48251088  0.70884523  0.01673728    -0.62000
O131        O  0.41013962  0.70884950  0.01690871    -0.74500
O132        O  0.48240828  0.70900802  0.09048404    -0.73300
Cu133      Cu  0.44631725  0.65387147  0.05373387     1.04600
Cu134      Cu  0.44619592  0.71169639  0.05363121     1.04300
C135        C  0.49330177  0.68011124  0.09813431     0.93000
C136        C  0.39931218  0.68001972  0.00926961     0.92100
C137        C  0.48969918  0.67997427  0.00544206     0.84300
C138        C  0.40228191  0.67994776  0.10140822     0.90600
O139        O  0.54218134  0.59554121  0.02299474    -0.73200
O140        O  0.54286857  0.52181820  0.08199500    -0.74200
O141        O  0.54303761  0.58800053  0.08921901    -0.62800
O142        O  0.54191133  0.52926116  0.01583957    -0.71200
O143        O  0.59537151  0.52175191  0.01571481    -0.70800
O144        O  0.59630219  0.59597019  0.08857725    -0.62000
O145        O  0.59627995  0.52250755  0.08937882    -0.74500
O146        O  0.59545907  0.59515759  0.01467973    -0.73300
Cu147      Cu  0.54150089  0.55867898  0.05253713     1.04600
Cu148      Cu  0.59863117  0.55883920  0.05205590     1.04300
C149        C  0.56679650  0.60633767  0.00743469     0.93000
C150        C  0.56788000  0.51107014  0.09700259     0.92100
C151        C  0.56783943  0.60288031  0.10039313     0.84300
C152        C  0.56680557  0.51459698  0.00438007     0.90600
O153        O  0.48256801  0.46125280  0.02142810    -0.73200
O154        O  0.41255697  0.46242607  0.08355105    -0.74200
O155        O  0.47841999  0.46118610  0.08761427    -0.62800
O156        O  0.41673927  0.46234266  0.01712577    -0.71200
O157        O  0.41052240  0.40829427  0.01583682    -0.70800
O158        O  0.48430657  0.40711901  0.08888484    -0.62000
O159        O  0.41131316  0.40824613  0.08926522    -0.74500
O160        O  0.48356071  0.40723697  0.01501219    -0.73300
Cu161      Cu  0.44762229  0.46279800  0.05241717     1.04600
Cu162      Cu  0.44742082  0.40495888  0.05224739     1.04300
C163        C  0.49400956  0.43612012  0.00689605     0.93000
C164        C  0.40084921  0.43713892  0.09756348     0.92100
C165        C  0.49229637  0.43592851  0.09965409     0.84300
C166        C  0.40251008  0.43727613  0.00533029     0.90600
O167        O  0.40672127  0.53233006  0.95205950    -0.73200
O168        O  0.48460704  0.58424153  0.95173880    -0.74200
O169        O  0.41972536  0.59778945  0.95242120    -0.62800
O170        O  0.47190257  0.51861295  0.95137940    -0.71200
O171        O  0.48334453  0.52271211  0.89863685    -0.70800
O172        O  0.40722125  0.59443089  0.89983208    -0.62000
O173        O  0.48024380  0.59668304  0.89913641    -0.74500
O174        O  0.40963659  0.52040020  0.89932423    -0.73300
Cu175      Cu  0.44573605  0.55821001  0.95283610     1.04600
Cu176      Cu  0.44507991  0.55853798  0.89615959     1.04300
C177        C  0.39700531  0.51521886  0.92795902     0.93000
C178        C  0.49336737  0.60178087  0.92752103     0.92100
C179        C  0.40236914  0.60738597  0.92842667     0.84300
C180        C  0.48909058  0.50956576  0.92701241     0.90600
C181        C  0.56273091  0.16545370  0.66860385     0.86200
C182        C  0.53948334  0.14124717  0.68763787    -0.54000
C183        C  0.52071483  0.12248201  0.66740795     0.09200
C184        C  0.52667056  0.13013369  0.63105646     0.20100
C185        C  0.58267882  0.14286692  0.64440571    -0.54700
C186        C  0.56311306  0.12421880  0.62437406     0.09300
C187        C  0.53952100  0.18624834  0.64585826    -0.54300
C188        C  0.52051363  0.16714297  0.62583465     0.09800
H189        H  0.53777183  0.13891203  0.71415060     0.14300
H190        H  0.51088270  0.11493847  0.61541742     0.00100
H191        H  0.60923125  0.14201856  0.64334276     0.14600
H192        H  0.53864796  0.21308353  0.64554828     0.14400
C193        C  0.56316154  0.16411296  0.43630433     0.86200
C194        C  0.54152995  0.18540118  0.46023771    -0.54000
C195        C  0.52210442  0.16668191  0.48039553     0.09200
C196        C  0.52638340  0.12959923  0.47403356     0.20100
C197        C  0.58258250  0.13991837  0.45930327    -0.54700
C198        C  0.56270338  0.12159781  0.47929868     0.09300
C199        C  0.53828111  0.14166807  0.41736769    -0.54300
C200        C  0.51877937  0.12374592  0.43770182     0.09800
H201        H  0.54182271  0.21223093  0.46102211     0.14300
H202        H  0.51054204  0.11451591  0.48979430     0.00100
H203        H  0.60908748  0.13775422  0.45960040     0.14600
H204        H  0.53582723  0.14006825  0.39086704     0.14400
C205        C  0.33833674  0.17285858  0.66747726     0.86200
C206        C  0.36146364  0.14939251  0.68749212    -0.54000
C207        C  0.38007601  0.12943044  0.66789001     0.09200
C208        C  0.37336793  0.13507619  0.63118657     0.20100
C209        C  0.36164008  0.19206363  0.64337531    -0.54700
C210        C  0.38004325  0.17160716  0.62408311     0.09300
C211        C  0.31781385  0.14949162  0.64484745    -0.54300
C212        C  0.33674887  0.12942756  0.62560751     0.09800
H213        H  0.36281511  0.14882156  0.71420470     0.14300
H214        H  0.38831255  0.11880513  0.61566948     0.00100
H215        H  0.36361100  0.21872270  0.64170421     0.14600
H216        H  0.29123682  0.14910242  0.64424444     0.14400
C217        C  0.33844303  0.17328231  0.43820915     0.86200
C218        C  0.36306642  0.19224366  0.46090824    -0.54000
C219        C  0.38129779  0.17165472  0.48016861     0.09200
C220        C  0.37299367  0.13516955  0.47472245     0.20100
C221        C  0.35998339  0.14810349  0.41842643    -0.54700
C222        C  0.37797154  0.12763532  0.43816098     0.09300
C223        C  0.31764277  0.15153088  0.46230578    -0.54300
C224        C  0.33638227  0.13143132  0.48180158     0.09800
H225        H  0.36590167  0.21885232  0.46185853     0.14300
H226        H  0.38806463  0.11887373  0.49013437     0.00100
H227        H  0.36031725  0.14642188  0.39173385     0.14600
H228        H  0.29109383  0.15219257  0.46364531     0.14400
O229        O  0.48523509  0.15167163  0.52104926    -0.73200
O230        O  0.41613782  0.15379549  0.58386130    -0.74200
O231        O  0.41977391  0.15372820  0.51781195    -0.62800
O232        O  0.48169489  0.15181719  0.58735567    -0.71200
O233        O  0.48883947  0.20566226  0.58942687    -0.70800
O234        O  0.41580807  0.20797117  0.51568682    -0.62000
O235        O  0.41592403  0.20789534  0.58956767    -0.74500
O236        O  0.48883388  0.20558854  0.51516414    -0.73300
Cu237      Cu  0.45070557  0.15182164  0.55251187     1.04600
Cu238      Cu  0.45245599  0.20959676  0.55244576     1.04300
C239        C  0.49792174  0.17625167  0.50671105     0.93000
C240        C  0.40495457  0.17925572  0.59798900     0.92100
C241        C  0.40682455  0.17926101  0.50545451     0.84300
C242        C  0.49593765  0.17644186  0.59993542     0.90600
C243        C  0.55933245  0.93781926  0.43965869     0.86200
C244        C  0.53767165  0.96220765  0.41897744    -0.54000
C245        C  0.51831212  0.98206232  0.43806504     0.09200
C246        C  0.52270636  0.97511571  0.47488127     0.20100
C247        C  0.57867585  0.96027960  0.46429266    -0.54700
C248        C  0.55891956  0.97982303  0.48286149     0.09300
C249        C  0.53453517  0.91827878  0.46172062    -0.54300
C250        C  0.51493869  0.93848294  0.48021485     0.09800
H251        H  0.53786722  0.96347260  0.39225646     0.14300
H252        H  0.50732115  0.99124098  0.49012240     0.00100
H253        H  0.60496712  0.96068488  0.46751563     0.14600
H254        H  0.53278570  0.89150365  0.46238222     0.14400
C255        C  0.32883470  0.94440843  0.43906297     0.86200
C256        C  0.31026043  0.96979662  0.46152920    -0.54000
C257        C  0.33084551  0.98841101  0.48023143     0.09200
C258        C  0.36687029  0.97960963  0.47457586     0.20100
C259        C  0.35358076  0.96573378  0.41860643    -0.54700
C260        C  0.37399066  0.98412287  0.43787951     0.09300
C261        C  0.35064491  0.92367981  0.46321244    -0.54300
C262        C  0.37085933  0.94272115  0.48197349     0.09800
H263        H  0.28394404  0.97295245  0.46274148     0.14300
H264        H  0.38298739  0.99485583  0.48979579     0.00100
H265        H  0.35500137  0.96564031  0.39189558     0.14600
H266        H  0.35016760  0.89688415  0.46488537     0.14400
C267        C  0.33027957  0.94353210  0.66614857     0.86200
C268        C  0.35376658  0.92316356  0.64334684    -0.54000
C269        C  0.37362972  0.94256074  0.62446779     0.09200
C270        C  0.36765627  0.97944081  0.63041152     0.20100
C271        C  0.35319367  0.96677488  0.68648907    -0.54700
C272        C  0.37286371  0.98593323  0.66717147     0.09300
C273        C  0.31123909  0.96725843  0.64211578    -0.54300
C274        C  0.33150361  0.98611606  0.62315097     0.09800
H275        H  0.35436656  0.89633841  0.64236191     0.14300
H276        H  0.38376779  0.99474757  0.61517923     0.00100
H277        H  0.35353025  0.96787655  0.71321330     0.14600
H278        H  0.28487180  0.96910135  0.63998185     0.14400
C279        C  0.55702290  0.93591753  0.66577046     0.86200
C280        C  0.53415727  0.91729345  0.64091970    -0.54000
C281        C  0.51586256  0.93813257  0.62196344     0.09200
C282        C  0.52226481  0.97448444  0.62985224     0.20100
C283        C  0.57776153  0.95994250  0.64387011    -0.54700
C284        C  0.55894676  0.98056177  0.62499643     0.09300
C285        C  0.53355591  0.95888920  0.68593869    -0.54300
C286        C  0.51496745  0.97913010  0.66651164     0.09800
H287        H  0.53237871  0.89069860  0.63844372     0.14300
H288        H  0.50734677  0.99096742  0.61448480     0.00100
H289        H  0.60433995  0.96054433  0.64366605     0.14600
H290        H  0.53179543  0.95875299  0.71262859     0.14400
O291        O  0.59900898  0.08796901  0.51623232    -0.73200
O292        O  0.59707631  0.01367511  0.58978765    -0.74200
O293        O  0.59652752  0.01442242  0.51642025    -0.62800
O294        O  0.59948006  0.08764789  0.59040061    -0.71200
O295        O  0.54619741  0.08913999  0.58283741    -0.70800
O296        O  0.54308286  0.01632588  0.52372780    -0.62000
O297        O  0.54397631  0.02299664  0.58970208    -0.74500
O298        O  0.54546648  0.08232572  0.51693018    -0.73300
Cu299      Cu  0.60083903  0.05088457  0.55321906     1.04600
Cu300      Cu  0.54374593  0.05277787  0.55333957     1.04300
C301        C  0.57057663  0.09604743  0.50500264     0.93000
C302        C  0.56824959  0.00703764  0.60080358     0.92100
C303        C  0.56760240  0.00426560  0.50897447     0.84300
C304        C  0.57117601  0.09958519  0.59789690     0.90600
O305        O  0.42027062  0.09259133  0.65164778    -0.73200
O306        O  0.47397012  0.01545616  0.65064248    -0.74200
O307        O  0.40889694  0.02705483  0.65141495    -0.62800
O308        O  0.48516162  0.08123601  0.65073475    -0.71200
O309        O  0.48408502  0.08992566  0.70427872    -0.70800
O310        O  0.41001871  0.01732102  0.70472643    -0.62000
O311        O  0.48317523  0.01609122  0.70406399    -0.74500
O312        O  0.41114738  0.09126860  0.70505460    -0.73300
Cu313      Cu  0.44704701  0.05406402  0.65015879     1.04600
Cu314      Cu  0.44713876  0.05360832  0.70742635     1.04300
C315        C  0.40510528  0.10366136  0.67644700     0.93000
C316        C  0.48936504  0.00424748  0.67528270     0.92100
C317        C  0.39797078  0.01140771  0.67603143     0.84300
C318        C  0.49592323  0.09653241  0.67559568     0.90600
O319        O  0.34917053  0.02234046  0.58277672    -0.73200
O320        O  0.35145596  0.09432309  0.52247538    -0.74200
O321        O  0.35173371  0.08858845  0.58852506    -0.62800
O322        O  0.34899273  0.02817686  0.51677878    -0.71200
O323        O  0.29531384  0.02364337  0.51603792    -0.70800
O324        O  0.29854736  0.09739587  0.58964846    -0.62000
O325        O  0.29807006  0.09734679  0.51580726    -0.74500
O326        O  0.29571720  0.02348157  0.58960384    -0.73300
Cu327      Cu  0.35128654  0.05832306  0.55262892     1.04600
Cu328      Cu  0.29413058  0.06060102  0.55279951     1.04300
C329        C  0.32398326  0.01152159  0.59726506     0.93000
C330        C  0.32707676  0.10696434  0.50794743     0.92100
C331        C  0.32747638  0.10396940  0.60041815     0.84300
C332        C  0.32361562  0.01474311  0.50515095     0.90600
O333        O  0.48528787  0.08818586  0.40096774    -0.73200
O334        O  0.40841631  0.01887099  0.40050795    -0.74200
O335        O  0.41257445  0.09270783  0.40110323    -0.62800
O336        O  0.48198233  0.01482620  0.40042605    -0.71200
O337        O  0.48365423  0.02454483  0.45367816    -0.70800
O338        O  0.40997576  0.08293409  0.45439988    -0.62000
O339        O  0.41800218  0.01642343  0.45376959    -0.74500
O340        O  0.47572686  0.09055547  0.45434164    -0.73300
Cu341      Cu  0.44701726  0.05360184  0.39785383     1.04600
Cu342      Cu  0.44682075  0.05354030  0.45502406     1.04300
C343        C  0.49192021  0.10014095  0.42956719     0.93000
C344        C  0.40155310  0.00700391  0.42912816     0.92100
C345        C  0.40075352  0.09967196  0.42971121     0.84300
C346        C  0.49398835  0.00846307  0.42908407     0.90600
O347        O  0.40569908  0.90413994  0.51517030    -0.73200
O348        O  0.47950042  0.90222177  0.58804645    -0.74200
O349        O  0.40628138  0.90439449  0.58869489    -0.62800
O350        O  0.47927706  0.90198343  0.51470193    -0.71200
O351        O  0.47474113  0.95616876  0.51635389    -0.70800
O352        O  0.41346726  0.95827433  0.58697017    -0.62000
O353        O  0.47926996  0.95637532  0.58234659    -0.74500
O354        O  0.40901581  0.95809898  0.52099657    -0.73300
Cu355      Cu  0.44260240  0.90039541  0.55162245     1.04600
Cu356      Cu  0.44413622  0.95819333  0.55162104     1.04300
C357        C  0.39600836  0.93341636  0.50723789     0.93000
C358        C  0.49067982  0.93081606  0.59618731     0.92100
C359        C  0.39894168  0.93355654  0.59915696     0.84300
C360        C  0.48834904  0.93070513  0.50452427     0.90600
C361        C  0.83728697  0.43271246  0.66801214     0.86200
C362        C  0.85990639  0.41312962  0.64355492    -0.54000
C363        C  0.87859425  0.43325016  0.62437541     0.09200
C364        C  0.87279234  0.46986498  0.63172964     0.20100
C365        C  0.86107213  0.45533101  0.68802681    -0.54700
C366        C  0.88000633  0.47495517  0.66840711     0.09300
C367        C  0.81707255  0.45685891  0.64568994    -0.54300
C368        C  0.83626261  0.47659174  0.62646204     0.09800
H369        H  0.86103083  0.38647193  0.64125162     0.14300
H370        H  0.88795697  0.48576343  0.61614014     0.00100
H371        H  0.86271377  0.45546302  0.71472487     0.14600
H372        H  0.79050833  0.45799435  0.64528329     0.14400
C373        C  0.83141513  0.43655906  0.44011442     0.86200
C374        C  0.85454939  0.45995136  0.42017913    -0.54000
C375        C  0.87425377  0.47862255  0.43978797     0.09200
C376        C  0.86851062  0.47193772  0.47644203     0.20100
C377        C  0.85472731  0.41578530  0.46277757    -0.54700
C378        C  0.87450731  0.43495152  0.48195622     0.09300
C379        C  0.81223389  0.46002934  0.46431509    -0.54300
C380        C  0.83233534  0.47878356  0.48346243     0.09800
H381        H  0.85524692  0.46125391  0.39346548     0.14300
H382        H  0.88430973  0.48713999  0.49199212     0.00100
H383        H  0.85563597  0.38895001  0.46308616     0.14600
H384        H  0.78586533  0.46189587  0.46635189     0.14400
C385        C  0.83334894  0.66553152  0.44239951     0.86200
C386        C  0.85675525  0.68526683  0.46577546    -0.54000
C387        C  0.87579468  0.66525844  0.48511180     0.09200
C388        C  0.86941734  0.62856804  0.47862754     0.20100
C389        C  0.85638588  0.64170763  0.42247070    -0.54700
C390        C  0.87533496  0.62220450  0.44202471     0.09300
C391        C  0.81342496  0.64218247  0.46586078    -0.54300
C392        C  0.83297108  0.62263464  0.48517224     0.09800
H393        H  0.85777687  0.71206691  0.46688463     0.14300
H394        H  0.88514188  0.61271570  0.49374061     0.00100
H395        H  0.85757506  0.63972028  0.39591853     0.14600
H396        H  0.78687232  0.64146133  0.46694921     0.14400
C397        C  0.83866664  0.66174097  0.67323494     0.86200
C398        C  0.86218526  0.63746432  0.69210748    -0.54000
C399        C  0.88053032  0.61829100  0.67143415     0.09200
C400        C  0.87349275  0.62561541  0.63512324     0.20100
C401        C  0.86152621  0.68196582  0.64979523    -0.54700
C402        C  0.88000160  0.66246749  0.62960361     0.09300
C403        C  0.81804010  0.63906524  0.64990523    -0.54300
C404        C  0.83687060  0.61994019  0.62961416     0.09800
H405        H  0.86416769  0.63549635  0.71866119     0.14300
H406        H  0.88840687  0.61023219  0.61875978     0.00100
H407        H  0.86275628  0.70878058  0.64938509     0.14600
H408        H  0.79146295  0.63852469  0.64956151     0.14400
O409        O  0.91177550  0.70183919  0.51932478    -0.73200
O410        O  0.98577724  0.69944522  0.59245717    -0.74200
O411        O  0.98513779  0.70064149  0.51890010    -0.62800
O412        O  0.91248415  0.70033838  0.59335807    -0.71200
O413        O  0.91857221  0.64634237  0.59107891    -0.70800
O414        O  0.97821134  0.64671304  0.51930377    -0.62000
O415        O  0.98411434  0.64557218  0.58518606    -0.74500
O416        O  0.91261153  0.64778176  0.52499897    -0.73300
Cu417      Cu  0.94876714  0.70338352  0.55605673     1.04600
Cu418      Cu  0.94832166  0.64566481  0.55512499     1.04300
C419        C  0.90094391  0.67315810  0.51100494     0.93000
C420        C  0.99641216  0.67027806  0.59960093     0.92100
C421        C  0.99269918  0.67175490  0.50783446     0.84300
C422        C  0.90480114  0.67126705  0.60376489     0.90600
O423        O  0.91951614  0.51215877  0.65173668    -0.73200
O424        O  0.98262453  0.58085519  0.65081576    -0.74200
O425        O  0.98509161  0.51441008  0.64980180    -0.62800
O426        O  0.91689558  0.57842187  0.65296352    -0.71200
O427        O  0.91659003  0.58307579  0.70695297    -0.70800
O428        O  0.98830855  0.50767867  0.70351403    -0.62000
O429        O  0.98990603  0.58164813  0.70449284    -0.74500
O430        O  0.91519541  0.50914237  0.70565230    -0.73300
Cu431      Cu  0.95100581  0.54647970  0.65038242     1.04600
Cu432      Cu  0.95259956  0.54534610  0.70793547     1.04300
C433        C  0.90607109  0.49962630  0.67681223     0.93000
C434        C  0.99744514  0.59237788  0.67556078     0.92100
C435        C  0.99757322  0.49969305  0.67425982     0.84300
C436        C  0.90563844  0.59208802  0.67857368     0.90600
O437        O  0.98125139  0.51264541  0.40053701    -0.73200
O438        O  0.90911710  0.58778806  0.40381423    -0.74200
O439        O  0.98213063  0.58653350  0.40216439    -0.62800
O440        O  0.90793458  0.51394595  0.40231504    -0.71200
O441        O  0.91434169  0.51524304  0.45611013    -0.70800
O442        O  0.97809006  0.58317910  0.45614372    -0.62000
O443        O  0.91238176  0.58163107  0.45761192    -0.74500
O444        O  0.98007120  0.51682531  0.45454509    -0.73300
Cu445      Cu  0.94503894  0.55026412  0.39942505     1.04600
Cu446      Cu  0.94624082  0.54916766  0.45705506     1.04300
C447        C  0.99184524  0.50346004  0.42900657     0.93000
C448        C  0.89986269  0.59608004  0.43301475     0.92100
C449        C  0.99124498  0.59596081  0.43103241     0.84300
C450        C  0.89993400  0.50355632  0.43121237     0.90600
O451        O  0.90948801  0.39662970  0.51545359    -0.73200
O452        O  0.98554858  0.39517669  0.58631961    -0.74200
O453        O  0.91237313  0.39603217  0.58891308    -0.62800
O454        O  0.98275115  0.39592838  0.51268923    -0.71200
O455        O  0.98079965  0.44998230  0.51846410    -0.70800
O456        O  0.91499064  0.45019603  0.58425478    -0.62000
O457        O  0.98087643  0.44936071  0.58467377    -0.74500
O458        O  0.91520522  0.45060493  0.51826507    -0.73300
Cu459      Cu  0.94752961  0.39315576  0.55081226     1.04600
Cu460      Cu  0.94798102  0.45099791  0.55140692     1.04300
C461        C  0.90083088  0.42582800  0.50613813     0.93000
C462        C  0.99466824  0.42390559  0.59640477     0.92100
C463        C  0.90290738  0.42502001  0.59802839     0.84300
C464        C  0.99258820  0.42492334  0.50416221     0.90600
O465        O  0.85203761  0.58218832  0.58947519    -0.73200
O466        O  0.84989538  0.51734711  0.52167998    -0.74200
O467        O  0.84995076  0.58368105  0.52329039    -0.62800
O468        O  0.85189515  0.51571334  0.58789626    -0.71200
O469        O  0.79841405  0.51240318  0.59339432    -0.70800
O470        O  0.79634351  0.58779333  0.52068995    -0.62000
O471        O  0.79623670  0.51360483  0.51961264    -0.74500
O472        O  0.79860716  0.58641465  0.59480622    -0.73300
Cu473      Cu  0.85186375  0.54975379  0.55554584     1.04600
Cu474      Cu  0.79463497  0.55010039  0.55720534     1.04300
C475        C  0.82762305  0.59519781  0.60360839     0.93000
C476        C  0.82466928  0.50432932  0.50928701     0.92100
C477        C  0.82486843  0.59705035  0.51079895     0.84300
C478        C  0.82734598  0.50262672  0.60159797     0.90600
C479        C  0.06394812  0.43043034  0.66329559     0.86200
C480        C  0.08370504  0.45410555  0.64023353    -0.54000
C481        C  0.06410895  0.47409144  0.62160426     0.09200
C482        C  0.02766256  0.46805297  0.62809018     0.20100
C483        C  0.04111726  0.45361254  0.68395591    -0.54700
C484        C  0.02204154  0.47369305  0.66490774     0.09300
C485        C  0.04018365  0.41112720  0.63977585    -0.54300
C486        C  0.02090379  0.43154117  0.62122045     0.09800
H487        H  0.11025754  0.45498272  0.63917052     0.14300
H488        H  0.01205012  0.48405343  0.61298992     0.00100
H489        H  0.04053892  0.45416756  0.71069597     0.14600
H490        H  0.03837178  0.38445300  0.63818531     0.14400
C491        C  0.05947143  0.66350843  0.43891088     0.86200
C492        C  0.03550533  0.64050218  0.41926494    -0.54000
C493        C  0.01688654  0.62100661  0.43924057     0.09200
C494        C  0.02421775  0.62656208  0.47574839     0.20100
C495        C  0.03697639  0.68323436  0.46315864    -0.54700
C496        C  0.01816633  0.66333282  0.48253338     0.09300
C497        C  0.07984679  0.63939405  0.46114255    -0.54300
C498        C  0.06079932  0.61966393  0.48053396     0.09800
H499        H  0.03322841  0.63947462  0.39271692     0.14300
H500        H  0.00924861  0.61084933  0.49175458     0.00100
H501        H  0.03588897  0.71003845  0.46435716     0.14600
H502        H  0.10640171  0.63798131  0.46105752     0.14400
C503        C  0.06556487  0.66007978  0.66607106     0.86200
C504        C  0.08477247  0.63679673  0.64180019    -0.54000
C505        C  0.06464155  0.61796450  0.62267683     0.09200
C506        C  0.02841422  0.62430800  0.63003776     0.20100
C507        C  0.04180388  0.68052448  0.64357959    -0.54700
C508        C  0.02218117  0.66120978  0.62441824     0.09300
C509        C  0.04285323  0.63634530  0.68621238    -0.54300
C510        C  0.02302967  0.61752055  0.66677138     0.09800
H511        H  0.11117642  0.63515941  0.63980488     0.14300
H512        H  0.01251694  0.60893078  0.61471244     0.00100
H513        H  0.04085256  0.70735579  0.64301772     0.14600
H514        H  0.04241255  0.63503278  0.71292754     0.14400
C515        C  0.05863059  0.43357290  0.43474179     0.86200
C516        C  0.03545244  0.41365993  0.45808519    -0.54000
C517        C  0.01723194  0.43342238  0.47821265     0.09200
C518        C  0.02410437  0.47018040  0.47264243     0.20100
C519        C  0.03542909  0.45813150  0.41578344    -0.54700
C520        C  0.01717593  0.47746926  0.43633096     0.09300
C521        C  0.07946952  0.45601931  0.45813617    -0.54300
C522        C  0.06076527  0.47532975  0.47837760     0.09800
H523        H  0.03392635  0.38686119  0.45858064     0.14300
H524        H  0.00927163  0.48587845  0.48877418     0.00100
H525        H  0.03331066  0.46014539  0.38926921     0.14600
H526        H  0.10605023  0.45612388  0.45870816     0.14400
O527        O  0.04745035  0.51555824  0.58626923    -0.73200
O528        O  0.04543017  0.57754369  0.51599402    -0.74200
O529        O  0.04577851  0.51100016  0.52038202    -0.62800
O530        O  0.04719173  0.58172133  0.58220306    -0.71200
O531        O  0.10076642  0.58212815  0.58775949    -0.70800
O532        O  0.09892627  0.51037563  0.51174680    -0.62000
O533        O  0.09879508  0.58456922  0.51421285    -0.74500
O534        O  0.10078936  0.50806719  0.58556046    -0.73300
Cu535      Cu  0.04554643  0.54643009  0.55123096     1.04600
Cu536      Cu  0.10263390  0.54625276  0.54973571     1.04300
C537        C  0.07235212  0.50042919  0.59695990     0.93000
C538        C  0.06987402  0.59267647  0.50434371     0.92100
C539        C  0.07008298  0.49967328  0.50470561     0.84300
C540        C  0.07233836  0.59303204  0.59634712     0.90600
C541        C  0.19832622  0.30176771  0.29910398    -0.02700
C542        C  0.69572167  0.30440125  0.30129872    -0.02700
C543        C  0.19559220  0.80321690  0.30653491    -0.02700
C544        C  0.20044256  0.30276615  0.80706356    -0.02700
C545        C  0.69579044  0.30359809  0.80483535    -0.02700
C546        C  0.69748647  0.80155751  0.30579857    -0.02700
C547        C  0.19611505  0.80361084  0.79968522    -0.02700
C548        C  0.05941644  0.16398730  0.16847926     0.86200
C549        C  0.03583481  0.18463476  0.14596097    -0.54000
C550        C  0.01674789  0.16543689  0.12611580     0.09200
C551        C  0.02363074  0.12853346  0.13087823     0.20100
C552        C  0.03647721  0.13947664  0.18756498    -0.54700
C553        C  0.01757706  0.12081948  0.16720300     0.09300
C554        C  0.07949667  0.14161763  0.14427845    -0.54300
C555        C  0.06012781  0.12284232  0.12429963     0.09800
H556        H  0.03437792  0.21144543  0.14611252     0.14300
H557        H  0.00832442  0.11329401  0.11485963     0.00100
H558        H  0.03503669  0.13703027  0.21409669     0.14600
H559        H  0.10605805  0.14087787  0.14327067     0.14400
C560        C  0.05899967  0.16853800  0.93979207     0.86200
C561        C  0.03540868  0.14543813  0.91981042    -0.54000
C562        C  0.01663030  0.12580317  0.93945864     0.09200
C563        C  0.02328937  0.13143753  0.97606736     0.20100
C564        C  0.03610344  0.18816778  0.96385888    -0.54700
C565        C  0.01723785  0.16811766  0.98317317     0.09300
C566        C  0.07908559  0.14442493  0.96237410    -0.54300
C567        C  0.05976825  0.12469988  0.98155581     0.09800
H568        H  0.03371119  0.14418012  0.89322995     0.14300
H569        H  0.00790719  0.11563266  0.99151669     0.00100
H570        H  0.03522719  0.21495998  0.96537333     0.14600
H571        H  0.10564333  0.14315890  0.96280856     0.14400
C572        C  0.83169222  0.16336916  0.16931624     0.86200
C573        C  0.85576686  0.13967034  0.18820355    -0.54000
C574        C  0.87478879  0.12109029  0.16770794     0.09200
C575        C  0.86772751  0.12809963  0.13138364     0.20100
C576        C  0.85425036  0.18417470  0.14589910    -0.54700
C577        C  0.87337365  0.16507006  0.12572876     0.09300
C578        C  0.81181262  0.14013479  0.14583422    -0.54300
C579        C  0.83127262  0.12143270  0.12569191     0.09800
H580        H  0.85768168  0.13755654  0.21473526     0.14300
H581        H  0.88320502  0.11296982  0.11532381     0.00100
H582        H  0.85484963  0.21100967  0.14554001     0.14600
H583        H  0.78526678  0.13878981  0.14542291     0.14400
C584        C  0.06015996  0.93468012  0.16470378     0.86200
C585        C  0.03648125  0.95762326  0.18469292    -0.54000
C586        C  0.01746895  0.97723806  0.16508267     0.09200
C587        C  0.02412431  0.97159205  0.12844525     0.20100
C588        C  0.03721098  0.91489154  0.14080927    -0.54700
C589        C  0.01817601  0.93489922  0.12163967     0.09300
C590        C  0.08001809  0.95864820  0.14188024    -0.54300
C591        C  0.06052005  0.97832149  0.12273220     0.09800
H592        H  0.03521617  0.95826065  0.21140649     0.14300
H593        H  0.00868474  0.98735586  0.11294259     0.00100
H594        H  0.03568043  0.88821220  0.13925698     0.14600
H595        H  0.10656382  0.95999996  0.14143088     0.14400
C596        C  0.83354684  0.93503809  0.16708182     0.86200
C597        C  0.85650348  0.91503705  0.14333364    -0.54000
C598        C  0.87508303  0.93481496  0.12345719     0.09200
C599        C  0.86842262  0.97156464  0.12948870     0.20100
C600        C  0.85699690  0.95889210  0.18615157    -0.54700
C601        C  0.87534907  0.97808531  0.16586327     0.09300
C602        C  0.81288398  0.95822609  0.14393534    -0.54300
C603        C  0.83179386  0.97758662  0.12387509     0.09800
H604        H  0.85799508  0.88823306  0.14279141     0.14300
H605        H  0.88350460  0.98725822  0.11366101     0.00100
H606        H  0.85927355  0.96073418  0.21264144     0.14600
H607        H  0.78631028  0.95904628  0.14368172     0.14400
O608        O  0.98317022  0.08545865  0.20371179    -0.73200
O609        O  0.91016762  0.01216659  0.20288255    -0.74200
O610        O  0.98312596  0.01175437  0.20268998    -0.62800
O611        O  0.90999326  0.08581201  0.20393591    -0.71200
O612        O  0.91347905  0.08308716  0.14989167    -0.70800
O613        O  0.97906728  0.01612129  0.14879382    -0.62000
O614        O  0.91337006  0.01669862  0.14889557    -0.74500
O615        O  0.97940512  0.08254398  0.14969211    -0.73300
Cu616      Cu  0.94663058  0.04876585  0.20604329     1.04600
Cu617      Cu  0.94634091  0.04963548  0.14832169     1.04300
C618        C  0.99239640  0.09514935  0.17496196     0.93000
C619        C  0.90066971  0.00336623  0.17396515     0.92100
C620        C  0.99215365  0.00269649  0.17367267     0.84300
C621        C  0.90051683  0.09562891  0.17527451     0.90600
C622        C  0.05997983  0.93760356  0.93768501     0.86200
C623        C  0.07977629  0.96068331  0.96126032    -0.54000
C624        C  0.06021181  0.97999510  0.98060698     0.09200
C625        C  0.02379294  0.97418232  0.97404945     0.20100
C626        C  0.03629508  0.91769042  0.96076850    -0.54700
C627        C  0.01711880  0.93748614  0.97985903     0.09300
C628        C  0.03704844  0.96139547  0.91769341    -0.54300
C629        C  0.01799305  0.98092527  0.93737807     0.09800
H630        H  0.10632864  0.96143896  0.96237802     0.14300
H631        H  0.00832048  0.98968359  0.98978378     0.00100
H632        H  0.03422419  0.89103365  0.96180178     0.14600
H633        H  0.03629675  0.96262062  0.89098192     0.14400
O634        O  0.09726317  0.01555213  0.01438123    -0.73200
O635        O  0.09732810  0.08759006  0.08990168    -0.74200
O636        O  0.09745326  0.01338097  0.08791669    -0.62800
O637        O  0.09706895  0.08969855  0.01618523    -0.71200
O638        O  0.04360540  0.08354309  0.01773790    -0.70800
O639        O  0.04396998  0.01975935  0.08683937    -0.62000
O640        O  0.04385912  0.08623518  0.08379046    -0.74500
O641        O  0.04377878  0.01710637  0.02068439    -0.73300
Cu642      Cu  0.10004675  0.05156884  0.05207884     1.04600
Cu643      Cu  0.04285693  0.05166995  0.05226426     1.04300
C644        C  0.06858864  0.00515353  0.00634265     0.93000
C645        C  0.06864300  0.09802062  0.09814960     0.92100
C646        C  0.06882803  0.00501195  0.09829615     0.84300
C647        C  0.06834324  0.09812572  0.00601718     0.90600
C648        C  0.83308655  0.16704104  0.93960056     0.86200
C649        C  0.81305613  0.14350932  0.96271355    -0.54000
C650        C  0.83239273  0.12401597  0.98221177     0.09200
C651        C  0.86888761  0.13033611  0.97631624     0.20100
C652        C  0.85604116  0.18698868  0.96315182    -0.54700
C653        C  0.87507890  0.16715486  0.98256709     0.09300
C654        C  0.85669019  0.14364326  0.91990131    -0.54300
C655        C  0.87545604  0.12420652  0.93972510     0.09800
H656        H  0.78649799  0.14250204  0.96329718     0.14300
H657        H  0.88425124  0.11459218  0.99197097     0.00100
H658        H  0.85711274  0.21379821  0.96402045     0.14600
H659        H  0.85883777  0.14241200  0.89335448     0.14400
O660        O  0.98142593  0.20482156  0.01764806    -0.73200
O661        O  0.90907044  0.20323244  0.09273152    -0.74200
O662        O  0.98264471  0.20353528  0.09141398    -0.62800
O663        O  0.90809631  0.20434928  0.01888588    -0.71200
O664        O  0.91535758  0.15043887  0.01898992    -0.70800
O665        O  0.97611205  0.14961731  0.08976056    -0.62000
O666        O  0.91032555  0.14944280  0.08509788    -0.74500
O667        O  0.98102026  0.15078126  0.02364203    -0.73300
Cu668      Cu  0.94528435  0.20679729  0.05523542     1.04600
Cu669      Cu  0.94571083  0.14912710  0.05437072     1.04300
C670        C  0.99235812  0.17608695  0.00936566     0.93000
C671        C  0.89845839  0.17415422  0.10004132     0.92100
C672        C  0.99063316  0.17443532  0.10162145     0.84300
C673        C  0.90064989  0.17552741  0.00771833     0.90600
C674        C  0.83356572  0.93789496  0.93584672     0.86200
C675        C  0.85649776  0.91775771  0.95944201    -0.54000
C676        C  0.87509578  0.93733775  0.97936201     0.09200
C677        C  0.86894578  0.97415975  0.97322643     0.20100
C678        C  0.81325505  0.96115726  0.95914315    -0.54700
C679        C  0.83239842  0.98036306  0.97904261     0.09300
C680        C  0.85718098  0.96167688  0.91656470    -0.54300
C681        C  0.87588349  0.98078786  0.93677805     0.09800
H682        H  0.85751924  0.89093915  0.96031936     0.14300
H683        H  0.88420570  0.98960677  0.98909858     0.00100
H684        H  0.78668830  0.96190904  0.95984144     0.14600
H685        H  0.85928893  0.96333276  0.89002708     0.14400
O686        O  0.91008379  0.89951397  0.01323700    -0.73200
O687        O  0.98227075  0.89792652  0.08796756    -0.74200
O688        O  0.90879154  0.89786716  0.08711567    -0.62800
O689        O  0.98321782  0.89965509  0.01451066    -0.71200
O690        O  0.97681174  0.95367761  0.01660659    -0.70800
O691        O  0.91498667  0.95183916  0.08667359    -0.62000
O692        O  0.98064759  0.95200923  0.08251071    -0.74500
O693        O  0.91103591  0.95342121  0.02042644    -0.73300
Cu694      Cu  0.94605621  0.89593884  0.05066212     1.04600
Cu695      Cu  0.94583364  0.95369021  0.05160333     1.04300
C696        C  0.89961377  0.92858102  0.00550994     0.93000
C697        C  0.99276570  0.92674712  0.09624114     0.92100
C698        C  0.90075617  0.92662354  0.09815227     0.84300
C699        C  0.99121883  0.92878966  0.00453863     0.90600
O700        O  0.79487757  0.01412576  0.01488434    -0.73200
O701        O  0.79426208  0.08712541  0.09015522    -0.74200
O702        O  0.79500018  0.08834253  0.01608923    -0.62800
O703        O  0.79423107  0.01284986  0.08924202    -0.71200
O704        O  0.84771820  0.01645284  0.08512194    -0.70800
O705        O  0.84854231  0.08474884  0.02059810    -0.62000
O706        O  0.84783580  0.08284658  0.08690820    -0.74500
O707        O  0.84838888  0.01822495  0.01873922    -0.73300
Cu708      Cu  0.79182264  0.05059719  0.05256670     1.04600
Cu709      Cu  0.84902239  0.05053807  0.05286027     1.04300
C710        C  0.82367696  0.00526385  0.00524548     0.93000
C711        C  0.82292367  0.09606608  0.09992761     0.92100
C712        C  0.82378477  0.09801229  0.00732832     0.84300
C713        C  0.82297535  0.00328535  0.09837039     0.90600
O714        O  0.91041494  0.09049214  0.90200077    -0.73200
O715        O  0.98364031  0.01637685  0.90027145    -0.74200
O716        O  0.91038417  0.01653092  0.90026110    -0.62800
O717        O  0.98334282  0.09052873  0.90173442    -0.71200
O718        O  0.97868511  0.08661829  0.95561205    -0.70800
O719        O  0.91480256  0.01842683  0.95423386    -0.62000
O720        O  0.98045390  0.02021920  0.95420536    -0.74500
O721        O  0.91311712  0.08475686  0.95588338    -0.73300
Cu722      Cu  0.94697257  0.05353648  0.89827488     1.04600
Cu723      Cu  0.94679702  0.05246479  0.95592178     1.04300
C724        C  0.90067514  0.09877238  0.93105367     0.93000
C725        C  0.99309427  0.00696756  0.92906905     0.92100
C726        C  0.90147113  0.00623907  0.92894087     0.84300
C727        C  0.99182821  0.09999243  0.93077840     0.90600
C728        C  0.69750064  0.80175508  0.79990522    -0.02700
C729        C  0.79028757  0.89216853  0.87224388     0.20100
C730        C  0.78155351  0.88311285  0.84004874    -0.39800
C731        C  0.75779103  0.85830389  0.83741225     0.19100
C732        C  0.74369199  0.84361742  0.86469441     0.21700
C733        C  0.75259050  0.85252683  0.89698820    -0.40300
C734        C  0.77640828  0.87745742  0.89964611     0.20500
N735        N  0.81204812  0.91536499  0.88113912    -0.33600
C736        C  0.81224301  0.91566275  0.91463758    -0.11100
C737        C  0.79021367  0.89224059  0.92699007    -0.29900
N738        N  0.72097152  0.82142783  0.85547845    -0.46500
C739        C  0.72015671  0.82228977  0.82192471    -0.05800
C740        C  0.74349877  0.84457620  0.80996800    -0.23200
H741        H  0.79227222  0.89477074  0.81859278     0.18600
H742        H  0.74152207  0.84117405  0.91842757     0.17400
H743        H  0.78507867  0.88680663  0.95259697     0.13700
H744        H  0.74859517  0.85052568  0.78446152     0.13600
H745        H  0.82564155  0.92988669  0.86495063     0.31700
H746        H  0.70702273  0.80682990  0.87136315     0.34500
C747        C  0.10648030  0.87465180  0.89455989     0.20100
C748        C  0.11700815  0.84254237  0.88676059    -0.39800
C749        C  0.13998331  0.84020626  0.86122980     0.19100
C750        C  0.15178641  0.86772987  0.84495473     0.21700
C751        C  0.14135882  0.89991975  0.85282635    -0.40300
C752        C  0.11817566  0.90225492  0.87825003     0.20500
N753        N  0.08449879  0.88328303  0.91756100    -0.33600
C754        C  0.08193465  0.91674355  0.91599039    -0.11100
C755        C  0.10279931  0.92944105  0.89179258    -0.29900
N756        N  0.17330831  0.85887468  0.82154486    -0.46500
C757        C  0.17481177  0.82520587  0.82220878    -0.05800
C758        C  0.15461578  0.81290721  0.84725411    -0.23200
H759        H  0.10775521  0.82094312  0.89946662     0.18600
H760        H  0.15044362  0.92148992  0.83994856     0.17400
H761        H  0.10606099  0.95511560  0.88498144     0.13700
H762        H  0.15094598  0.78727178  0.85399863     0.13600
H763        H  0.07248879  0.86690467  0.93338920     0.31700
H764        H  0.18609943  0.87530403  0.80652754     0.34500
C765        C  0.79180538  0.88967737  0.23187454     0.20100
C766        C  0.78363271  0.88078426  0.26429882    -0.39800
C767        C  0.75862178  0.85733079  0.26748402     0.19100
C768        C  0.74330749  0.84351352  0.24053808     0.21700
C769        C  0.75176950  0.85206157  0.20807671    -0.40300
C770        C  0.77650180  0.87584764  0.20484142     0.20500
N771        N  0.81393590  0.91220535  0.22236922    -0.33600
C772        C  0.81279818  0.91295627  0.18887483    -0.11100
C773        C  0.78975076  0.89039038  0.17713258    -0.29900
N774        N  0.72013779  0.82210726  0.25014759    -0.46500
C775        C  0.71992304  0.82260684  0.28375063    -0.05800
C776        C  0.74442784  0.84393709  0.29518482    -0.23200
H777        H  0.79548737  0.89174528  0.28548052     0.18600
H778        H  0.73962445  0.84137002  0.18693342     0.17400
H779        H  0.78336379  0.88559928  0.15170515     0.13700
H780        H  0.75187530  0.84842087  0.32029578     0.13600
H781        H  0.82854671  0.92603166  0.23828162     0.31700
H782        H  0.70603239  0.80786578  0.23419150     0.34500
C783        C  0.73942261  0.25799437  0.86934330     0.20100
C784        C  0.75002464  0.25055056  0.90146643    -0.39800
C785        C  0.77413701  0.22583520  0.90394206     0.19100
C786        C  0.78648295  0.20975512  0.87654598     0.21700
C787        C  0.77551375  0.21682893  0.84457361    -0.40300
C788        C  0.75166022  0.24167159  0.84213022     0.20500
N789        N  0.71764506  0.28123970  0.86022065    -0.33600
C790        C  0.71642842  0.28045703  0.82665206    -0.11100
C791        C  0.73681311  0.25511648  0.81485369    -0.29900
N792        N  0.80921380  0.18740078  0.88524341    -0.46500
C793        C  0.81136910  0.18892067  0.91861242    -0.05800
C794        C  0.78979895  0.21272197  0.93110434    -0.23200
H795        H  0.74049901  0.26331843  0.92287134     0.18600
H796        H  0.78520381  0.20424356  0.82312905     0.17400
H797        H  0.74005759  0.24683490  0.78978428     0.13700
H798        H  0.78598823  0.21928932  0.95667363     0.13600
H799        H  0.70473734  0.29646872  0.87640256     0.31700
H800        H  0.82171143  0.17186959  0.86901427     0.34500
C801        C  0.10376674  0.21438084  0.87746857     0.20100
C802        C  0.11285881  0.22389009  0.84554028    -0.39800
C803        C  0.13849141  0.24672380  0.84348834     0.19100
C804        C  0.15410836  0.25906660  0.87096474     0.21700
C805        C  0.14503427  0.24953258  0.90305035    -0.40300
C806        C  0.11913520  0.22676173  0.90517007     0.20500
N807        N  0.08041203  0.19263201  0.88578923    -0.33600
C808        C  0.08072284  0.19088217  0.91922036    -0.11100
C809        C  0.10449802  0.21208748  0.93213758    -0.29900
N810        N  0.17804354  0.28008269  0.86210983    -0.46500
C811        C  0.17748704  0.28162648  0.82852756    -0.05800
C812        C  0.15312919  0.26054868  0.81636135    -0.23200
H813        H  0.10090684  0.21411799  0.82384195     0.18600
H814        H  0.15726771  0.25903768  0.92470284     0.17400
H815        H  0.11054898  0.21578254  0.95783180     0.13700
H816        H  0.14707673  0.25501038  0.79113363     0.13600
H817        H  0.06556716  0.17988341  0.86924107     0.31700
H818        H  0.19399888  0.29192015  0.87831480     0.34500
C819        C  0.15202493  0.86648714  0.25884086     0.20100
C820        C  0.14135076  0.89845490  0.25040395    -0.39800
C821        C  0.11822099  0.90023820  0.22488264     0.19100
C822        C  0.10681264  0.87235478  0.20892745     0.21700
C823        C  0.11783608  0.84047759  0.21709004    -0.40300
C824        C  0.14073927  0.83873072  0.24276102     0.20500
N825        N  0.17319600  0.85808682  0.28275952    -0.33600
C826        C  0.17493546  0.82440360  0.28277242    -0.11100
C827        C  0.15560708  0.81181615  0.25714009    -0.29900
N828        N  0.08474372  0.88052962  0.18576073    -0.46500
C829        C  0.08205033  0.91401562  0.18676810    -0.05800
C830        C  0.10267220  0.92710922  0.21091642    -0.23200
H831        H  0.15012773  0.92027010  0.26302302     0.18600
H832        H  0.10890428  0.81861323  0.20466588     0.17400
H833        H  0.15324146  0.78646998  0.24919345     0.13700
H834        H  0.10575100  0.95288616  0.21735486     0.13600
H835        H  0.18557261  0.87490482  0.29764172     0.31700
H836        H  0.07275467  0.86397642  0.17024493     0.34500
C837        C  0.77212296  0.21966187  0.20519834     0.20100
C838        C  0.74702589  0.24355192  0.20512824    -0.39800
C839        C  0.73692071  0.25489769  0.23625498     0.19100
C840        C  0.75045861  0.24311930  0.26519331     0.21700
C841        C  0.77540424  0.21912433  0.26528169    -0.40300
C842        C  0.78572534  0.20799045  0.23416434     0.20500
N843        N  0.78665027  0.20552170  0.17893594    -0.33600
C844        C  0.80974990  0.18456495  0.19110054    -0.11100
C845        C  0.80977610  0.18556773  0.22563724    -0.29900
N846        N  0.73727235  0.25852175  0.29140263    -0.46500
C847        C  0.71562332  0.28104769  0.27927621    -0.05800
C848        C  0.71433556  0.27880274  0.24476934    -0.23200
H849        H  0.73654424  0.25304080  0.18250445     0.18600
H850        H  0.78633942  0.21015946  0.28789951     0.17400
H851        H  0.82524115  0.17209880  0.24261030     0.13700
H852        H  0.69921538  0.29278835  0.22785960     0.13600
H853        H  0.78125156  0.20985991  0.15414561     0.31700
H854        H  0.74311949  0.25447049  0.31614635     0.34500
C855        C  0.11628755  0.22270900  0.20347214     0.20100
C856        C  0.14015057  0.24766404  0.20310658    -0.39800
C857        C  0.15139721  0.25802594  0.23411921     0.19100
C858        C  0.13961763  0.24473905  0.26317350     0.21700
C859        C  0.11557342  0.22001898  0.26355926    -0.40300
C860        C  0.10452529  0.20948981  0.23258170     0.20500
N861        N  0.10198932  0.20820841  0.17739821    -0.33600
C862        C  0.08088291  0.18555018  0.18990363    -0.11100
C863        C  0.08191225  0.18571385  0.22439014    -0.29900
N864        N  0.15462922  0.25836590  0.28924958    -0.46500
C865        C  0.17659015  0.28038704  0.27697009    -0.05800
C866        C  0.17476411  0.28108218  0.24244620    -0.23200
H867        H  0.14953020  0.25798616  0.18037249     0.18600
H868        H  0.10639800  0.20950002  0.28629191     0.17400
H869        H  0.06819257  0.17071536  0.24154733     0.13700
H870        H  0.18837670  0.29639007  0.22544794     0.13600
H871        H  0.10625394  0.21338071  0.15254139     0.31700
H872        H  0.15029963  0.25296428  0.31405171     0.34500
C873        C  0.10146411  0.38758932  0.37134451     0.20100
C874        C  0.11070414  0.37900793  0.33922684    -0.39800
C875        C  0.13549469  0.35517244  0.33670986     0.19100
C876        C  0.14994774  0.34075563  0.36399999     0.21700
C877        C  0.14042277  0.34906914  0.39624536    -0.40300
C878        C  0.11568425  0.37317463  0.39877989     0.20500
N879        N  0.07939839  0.41061943  0.38012980    -0.33600
C880        C  0.07949720  0.41108730  0.41358110    -0.11100
C881        C  0.10174351  0.38787615  0.42604136    -0.29900
N882        N  0.17384866  0.31972918  0.35481556    -0.46500
C883        C  0.17494148  0.32115936  0.32130063    -0.05800
C884        C  0.15081511  0.34262681  0.30933109    -0.23200
H885        H  0.09987041  0.39057120  0.31775469     0.18600
H886        H  0.15190112  0.33815394  0.41771910     0.17400
H887        H  0.10725101  0.38287065  0.45165970     0.13700
H888        H  0.14579286  0.34874880  0.28384998     0.13600
H889        H  0.06567499  0.42506283  0.36398411     0.31700
H890        H  0.18834168  0.30555078  0.37065503     0.34500
C891        C  0.12762702  0.70809098  0.70854100     0.20100
C892        C  0.15907809  0.72035772  0.71524001    -0.39800
C893        C  0.16087916  0.74460140  0.73988698     0.19100
C894        C  0.13351622  0.75575677  0.75662158     0.21700
C895        C  0.10204609  0.74344292  0.74999621    -0.40300
C896        C  0.10021431  0.71925978  0.72524968     0.20500
N897        N  0.11937011  0.68542317  0.68582889    -0.33600
C898        C  0.08632005  0.68209151  0.68788772    -0.11100
C899        C  0.07360087  0.70289069  0.71228777    -0.29900
N900        N  0.14178309  0.77869159  0.77906938    -0.46500
C901        C  0.17493385  0.78186407  0.77722620    -0.05800
C902        C  0.18745201  0.76122953  0.75248853    -0.23200
H903        H  0.18056808  0.71171502  0.70215471     0.18600
H904        H  0.08056436  0.75214073  0.76305960     0.17400
H905        H  0.04816897  0.70584833  0.71927007     0.13700
H906        H  0.21285115  0.75822175  0.74539996     0.13600
H907        H  0.13552801  0.67369923  0.66960545     0.31700
H908        H  0.12547474  0.79095308  0.79465834     0.34500
C909        C  0.15036090  0.75806185  0.37026008     0.20100
C910        C  0.14207611  0.74771951  0.40228271    -0.39800
C911        C  0.11742857  0.72361593  0.40431854     0.19100
C912        C  0.10241046  0.71080836  0.37660922     0.21700
C913        C  0.11072109  0.72112722  0.34472870    -0.40300
C914        C  0.13516658  0.74525588  0.34276064     0.20500
N915        N  0.17341919  0.78005728  0.36148899    -0.33600
C916        C  0.17277301  0.78175696  0.32791874    -0.11100
C917        C  0.14918855  0.75980788  0.31569635    -0.29900
N918        N  0.08011227  0.68794984  0.38488395    -0.46500
C919        C  0.08076967  0.68602171  0.41828084    -0.05800
C920        C  0.10376947  0.70802138  0.43123166    -0.23200
H921        H  0.15403383  0.75755217  0.42394542     0.18600
H922        H  0.09911802  0.71097203  0.32301480     0.17400
H923        H  0.14361851  0.75381064  0.29046570     0.13700
H924        H  0.10968833  0.71192047  0.45692989     0.13600
H925        H  0.18911483  0.79213991  0.37774608     0.31700
H926        H  0.06560418  0.67477040  0.36839573     0.34500
C927        C  0.12142500  0.39700516  0.72231287     0.20100
C928        C  0.14382354  0.39799392  0.74856792    -0.39800
C929        C  0.15589488  0.36720477  0.75914587     0.19100
C930        C  0.14678148  0.33792891  0.74434174     0.21700
C931        C  0.12452957  0.33693280  0.71804432    -0.40300
C932        C  0.11200308  0.36758361  0.70786028     0.20500
N933        N  0.10586202  0.42265818  0.70816137    -0.33600
C934        C  0.08604376  0.40952181  0.68476099    -0.11100
C935        C  0.08934495  0.37510268  0.68385394    -0.29900
N936        N  0.16156154  0.31212286  0.75889431    -0.46500
C937        C  0.17971841  0.32455531  0.78406023    -0.05800
C938        C  0.17718575  0.35923871  0.78430879    -0.23200
H939        H  0.15097475  0.42095947  0.76016569     0.18600
H940        H  0.11711299  0.31392199  0.70670561     0.17400
H941        H  0.07709675  0.35766612  0.66793671     0.13700
H942        H  0.18914377  0.37666725  0.80044777     0.13600
H943        H  0.10825392  0.44763019  0.71424764     0.31700
H944        H  0.16017774  0.28761389  0.75106904     0.34500
C945        C  0.75711623  0.74440535  0.76566375     0.20100
C946        C  0.78147322  0.71982902  0.76690789    -0.39800
C947        C  0.79307108  0.70864192  0.73632569     0.19100
C948        C  0.78134421  0.72108205  0.70683783     0.21700
C949        C  0.75697555  0.74568436  0.70560580    -0.40300
C950        C  0.74526077  0.75677586  0.73621165     0.20500
N951        N  0.74196761  0.75883288  0.79126004    -0.33600
C952        C  0.71980313  0.78037086  0.77831562    -0.11100
C953        C  0.72148723  0.77993536  0.74380463    -0.29900
N954        N  0.79610344  0.70614883  0.68125630    -0.46500
C955        C  0.81739478  0.68390733  0.69436335    -0.05800
C956        C  0.81619740  0.68485342  0.72882949    -0.23200
H957        H  0.79057263  0.71000838  0.78999362     0.18600
H958        H  0.74767020  0.75529936  0.68252082     0.17400
H959        H  0.70736521  0.79448470  0.72647806     0.13700
H960        H  0.83000618  0.67019404  0.74628769     0.13600
H961        H  0.74624120  0.75416220  0.81621168     0.31700
H962        H  0.79186989  0.71063998  0.65626455     0.34500
C963        C  0.74104321  0.75747814  0.37096131     0.20100
C964        C  0.74877322  0.74755180  0.40327661    -0.39800
C965        C  0.77421702  0.72423790  0.40616410     0.19100
C966        C  0.79040724  0.71177698  0.37892409     0.21700
C967        C  0.78285362  0.72185646  0.34674149    -0.40300
C968        C  0.75767004  0.74523299  0.34389662     0.20500
N969        N  0.71755404  0.77882247  0.36148692    -0.33600
C970        C  0.71938834  0.78043279  0.32801826    -0.11100
C971        C  0.74433889  0.75976252  0.31635497    -0.29900
N972        N  0.81321886  0.68963989  0.38792784    -0.46500
C973        C  0.81182670  0.68775541  0.42134261    -0.05800
C974        C  0.78780508  0.70924259  0.43357246    -0.23200
H975        H  0.73586404  0.75715457  0.42453410     0.18600
H976        H  0.79557599  0.71207205  0.32544776     0.17400
H977        H  0.75140851  0.75570593  0.29095965     0.13700
H978        H  0.78107032  0.71309430  0.45908360     0.13600
H979        H  0.70107545  0.79086600  0.37709031     0.31700
H980        H  0.82871044  0.67710307  0.37175799     0.34500
C981        C  0.76857180  0.39540065  0.39260826     0.20100
C982        C  0.73663515  0.38823593  0.38236471    -0.39800
C983        C  0.73390202  0.36455065  0.35743840     0.19100
C984        C  0.76087128  0.34925424  0.34350108     0.21700
C985        C  0.79300116  0.35667050  0.35354918    -0.40300
C986        C  0.79573374  0.38029763  0.37879007     0.20500
N987        N  0.77735554  0.41669419  0.41627363    -0.33600
C988        C  0.81053228  0.41544584  0.41772172    -0.11100
C989        C  0.82286838  0.39289524  0.39464874    -0.29900
N990        N  0.75144750  0.32659172  0.32122161    -0.46500
C991        C  0.71808560  0.32692880  0.32150738    -0.05800
C992        C  0.70649404  0.35099235  0.34336604    -0.23200
H993        H  0.71540127  0.39986791  0.39342754     0.18600
H994        H  0.81419758  0.34455638  0.34292877     0.17400
H995        H  0.84829803  0.38681547  0.39001494     0.13700
H996        H  0.68121053  0.35685716  0.34898384     0.13600
H997        H  0.76129137  0.43122383  0.43005794     0.31700
H998        H  0.76707405  0.31177673  0.30718253     0.34500
C999        C  0.75641835  0.33935244  0.74929496     0.20100
C1000       C  0.78127599  0.33858162  0.72550107    -0.39800
C1001       C  0.79199051  0.36943881  0.71426281     0.19100
C1002       C  0.77893443  0.39884117  0.72573269     0.21700
C1003       C  0.75382445  0.39959217  0.74942364    -0.40300
C1004       C  0.74317166  0.36859661  0.76077496     0.20500
N1005       N  0.74176647  0.31330802  0.76332338    -0.33600
C1006       C  0.71888572  0.32557509  0.78442313    -0.11100
C1007       C  0.71904617  0.36033979  0.78306152    -0.29900
N1008       N  0.79344763  0.42472541  0.71100359    -0.46500
C1009       C  0.81579649  0.41171309  0.68985743    -0.05800
C1010       C  0.81553883  0.37716239  0.69134779    -0.23200
H1011       H  0.79148088  0.31560843  0.71635943     0.18600
H1012       H  0.74333118  0.42254199  0.75827740     0.17400
H1013       H  0.70321929  0.37757398  0.79581903     0.13700
H1014       H  0.83038683  0.35967317  0.67780942     0.13600
H1015       H  0.74641599  0.28868980  0.75738459     0.31700
H1016       H  0.78837952  0.44975877  0.71488729     0.34500
C1017       C  0.61366795  0.89942186  0.72412566     0.20100
C1018       C  0.63881171  0.89917658  0.74772591    -0.39800
C1019       C  0.64962420  0.86776946  0.75791626     0.19100
C1020       C  0.63634476  0.83886563  0.74576188     0.21700
C1021       C  0.61083929  0.83911054  0.72255636    -0.40300
C1022       C  0.60023230  0.87050036  0.71211881     0.20500
N1023       N  0.60000554  0.92593454  0.70945272    -0.33600
C1024       C  0.57777594  0.91391474  0.68770938    -0.11100
C1025       C  0.57717712  0.87930109  0.68893352    -0.29900
N1026       N  0.65163984  0.81232042  0.75865245    -0.46500
C1027       C  0.67511518  0.82418533  0.77921196    -0.05800
C1028       C  0.67405488  0.85890665  0.77958351    -0.23200
H1029       H  0.64961289  0.92174389  0.75699059     0.18600
H1030       H  0.60048875  0.81653413  0.71280904     0.17400
H1031       H  0.56228259  0.86244503  0.67480500     0.13700
H1032       H  0.68881969  0.87579298  0.79383187     0.13600
H1033       H  0.60571266  0.95074730  0.71361750     0.31700
H1034       H  0.64644935  0.78751956  0.75379856     0.34500
C1035       C  0.26735262  0.89774146  0.70958044     0.20100
C1036       C  0.23545762  0.88751227  0.71724596    -0.39800
C1037       C  0.23300015  0.86231476  0.74080455     0.19100
C1038       C  0.26016758  0.84859277  0.75589710     0.21700
C1039       C  0.29217617  0.85870976  0.74813965    -0.40300
C1040       C  0.29465194  0.88379484  0.72429806     0.20500
N1041       N  0.27605726  0.92085279  0.68751767    -0.33600
C1042       C  0.30930394  0.92164339  0.68784381    -0.11100
C1043       C  0.32172742  0.89887112  0.71065215    -0.29900
N1044       N  0.25112606  0.82567644  0.77806761    -0.46500
C1045       C  0.21775699  0.82506585  0.77753607    -0.05800
C1046       C  0.20581421  0.84708792  0.75377726    -0.23200
H1047       H  0.21410098  0.89834670  0.70563797     0.18600
H1048       H  0.31351821  0.84786604  0.75978098     0.17400
H1049       H  0.34720332  0.89383483  0.71614793     0.13700
H1050       H  0.18045015  0.85200014  0.74768386     0.13600
H1051       H  0.25993829  0.93468152  0.67307444     0.31700
H1052       H  0.26707643  0.81161496  0.79252859     0.34500
C1053       C  0.26553459  0.89901225  0.39605854     0.20100
C1054       C  0.23363757  0.88926581  0.38771768    -0.39800
C1055       C  0.23140690  0.86370642  0.36451431     0.19100
C1056       C  0.25875449  0.84899491  0.35072653     0.21700
C1057       C  0.29064244  0.85870882  0.35907199    -0.40300
C1058       C  0.29289736  0.88427123  0.38224837     0.20500
N1059       N  0.27426175  0.92250465  0.41768827    -0.33600
C1060       C  0.30755136  0.92271293  0.41771224    -0.11100
C1061       C  0.31993572  0.89917089  0.39584072    -0.29900
N1062       N  0.25008045  0.82549324  0.32912241    -0.46500
C1063       C  0.21673209  0.82536325  0.32859572    -0.05800
C1064       C  0.20442113  0.84873834  0.35091707    -0.23200
H1065       H  0.21216216  0.90073697  0.39847482     0.18600
H1066       H  0.31210472  0.84722610  0.34830062     0.17400
H1067       H  0.34540452  0.89356284  0.39087719     0.13700
H1068       H  0.17896446  0.85429289  0.35603127     0.13600
H1069       H  0.25820414  0.93692162  0.43163179     0.31700
H1070       H  0.26628673  0.81069499  0.31571557     0.34500
C1071       C  0.62315574  0.89419497  0.39544995     0.20100
C1072       C  0.65529568  0.88669286  0.38596558    -0.39800
C1073       C  0.65852967  0.86204575  0.36206352     0.19100
C1074       C  0.63192443  0.84586545  0.34882064     0.21700
C1075       C  0.59960604  0.85343948  0.35823526    -0.40300
C1076       C  0.59630609  0.87840090  0.38204665     0.20500
N1077       N  0.61384579  0.91683483  0.41761642    -0.33600
C1078       C  0.58060866  0.91576264  0.41847552    -0.11100
C1079       C  0.56879742  0.89205341  0.39646751    -0.29900
N1080       N  0.64182921  0.82263869  0.32738451    -0.46500
C1081       C  0.67522116  0.82418868  0.32649087    -0.05800
C1082       C  0.68619778  0.84862991  0.34823123    -0.23200
H1083       H  0.67627314  0.89909813  0.39651381     0.18600
H1084       H  0.57866753  0.84081374  0.34787244     0.17400
H1085       H  0.54348708  0.88578944  0.39168921     0.13700
H1086       H  0.71102464  0.85498447  0.35457804     0.13600
H1087       H  0.62969202  0.93219655  0.43055105     0.31700
H1088       H  0.62633708  0.80625682  0.31515407     0.34500
C1089       C  0.28242479  0.20786537  0.37845166     0.20100
C1090       C  0.25862886  0.20703152  0.35353880    -0.39800
C1091       C  0.24736517  0.23792101  0.34247805     0.19100
C1092       C  0.25895031  0.26735254  0.35517009     0.21700
C1093       C  0.28295689  0.26820628  0.37993191    -0.40300
C1094       C  0.29420208  0.23728728  0.39103238     0.20500
N1095       N  0.29646559  0.18191749  0.39362562    -0.33600
C1096       C  0.31756400  0.19472793  0.41599354    -0.11100
C1097       C  0.31677914  0.22935711  0.41502828    -0.29900
N1098       N  0.24356137  0.29321922  0.34117675    -0.46500
C1099       C  0.22158616  0.28034828  0.31958807    -0.05800
C1100       C  0.22379183  0.24572372  0.31947274    -0.23200
H1101       H  0.24924574  0.18401989  0.34380365     0.18600
H1102       H  0.29191814  0.29121350  0.39007896     0.17400
H1103       H  0.33039531  0.24669822  0.42988220     0.13700
H1104       H  0.20988729  0.22832310  0.30492933     0.13600
H1105       H  0.29199807  0.15690681  0.38909697     0.31700
H1106       H  0.24730845  0.31821834  0.34639638     0.34500
C1107       C  0.25610817  0.26686453  0.74718998     0.20100
C1108       C  0.27831135  0.26728603  0.72085008    -0.39800
C1109       C  0.29132072  0.23650403  0.71182487     0.19100
C1110       C  0.28275691  0.20748732  0.72765926     0.21700
C1111       C  0.26062303  0.20707558  0.75417394    -0.40300
C1112       C  0.24765708  0.23795172  0.76327628     0.20500
N1113       N  0.24051086  0.29288183  0.76044557    -0.33600
C1114       C  0.22180617  0.28071419  0.78530770    -0.11100
C1115       C  0.22578669  0.24633791  0.78778814    -0.29900
N1116       N  0.29822697  0.18154101  0.71395455    -0.46500
C1117       C  0.31704774  0.19412256  0.68938946    -0.05800
C1118       C  0.31325783  0.22844495  0.68737214    -0.23200
H1119       H  0.28496502  0.28993021  0.70829650     0.18600
H1120       H  0.25394541  0.18443071  0.76671428     0.17400
H1121       H  0.21461696  0.22966875  0.80535271     0.13700
H1122       H  0.32440762  0.24545959  0.67018039     0.13600
H1123       H  0.24255045  0.31757535  0.75314632     0.31700
H1124       H  0.29618795  0.15673624  0.72086690     0.34500
C1125       C  0.62175384  0.22022478  0.39951972     0.20100
C1126       C  0.64598386  0.24481188  0.39903333    -0.39800
C1127       C  0.65486151  0.25655377  0.36767022     0.19100
C1128       C  0.64093062  0.24456322  0.33906441     0.21700
C1129       C  0.61695705  0.21981460  0.33953311    -0.40300
C1130       C  0.60791069  0.20827999  0.37084435     0.20500
N1131       N  0.60805120  0.20587630  0.42608543    -0.33600
C1132       C  0.58513840  0.18470548  0.41430256    -0.11100
C1133       C  0.58462948  0.18550698  0.37978633    -0.29900
N1134       N  0.65330383  0.25997820  0.31250325    -0.46500
C1135       C  0.67520132  0.28238902  0.32401108    -0.05800
C1136       C  0.67697012  0.28053277  0.35854313    -0.23200
H1137       H  0.65675979  0.25444462  0.42140394     0.18600
H1138       H  0.60580362  0.21056138  0.31718757     0.17400
H1139       H  0.56914205  0.17198822  0.36300109     0.13700
H1140       H  0.69255255  0.29437063  0.37503120     0.13600
H1141       H  0.61352175  0.21054487  0.45078077     0.31700
H1142       H  0.64726844  0.25552945  0.28788957     0.34500
C1143       C  0.61809234  0.22461162  0.70563674     0.20100
C1144       C  0.64012379  0.25123640  0.70649072    -0.39800
C1145       C  0.65152725  0.26016465  0.73792218     0.19100
C1146       C  0.64182477  0.24379808  0.76620689     0.21700
C1147       C  0.61971008  0.21737807  0.76536601    -0.40300
C1148       C  0.60823089  0.20857423  0.73403884     0.20500
N1149       N  0.60363354  0.21122535  0.67901426    -0.33600
C1150       C  0.58412784  0.18664634  0.69055705    -0.11100
C1151       C  0.58655395  0.18435889  0.72490911    -0.29900
N1152       N  0.65610266  0.25693733  0.79294486    -0.46500
C1153       C  0.67518882  0.28205082  0.78188366    -0.05800
C1154       C  0.67275023  0.28477924  0.74747720    -0.23200
H1155       H  0.64778830  0.26405940  0.68437619     0.18600
H1156       H  0.61192954  0.20465307  0.78749855     0.17400
H1157       H  0.57449352  0.16737196  0.74146520     0.13700
H1158       H  0.68455140  0.30253470  0.73146344     0.13600
H1159       H  0.60656506  0.21851932  0.65449311     0.31700
H1160       H  0.65303848  0.24935019  0.81736388     0.34500
C1161       C  0.27700334  0.70922730  0.88131546     0.20100
C1162       C  0.25392224  0.70866106  0.85581956    -0.39800
C1163       C  0.24210054  0.73959118  0.84571597     0.19100
C1164       C  0.25254336  0.76886236  0.85970482     0.21700
C1165       C  0.27580646  0.76947487  0.88513688    -0.40300
C1166       C  0.28754327  0.73846109  0.89538316     0.20500
N1167       N  0.29157016  0.68311753  0.89560296    -0.33600
C1168       C  0.31171384  0.69564188  0.91895412    -0.11100
C1169       C  0.30979646  0.73023973  0.91951729    -0.29900
N1170       N  0.23745765  0.79481626  0.84559377    -0.46500
C1171       C  0.21744323  0.78210333  0.82206795    -0.05800
C1172       C  0.21947626  0.74749325  0.82196989    -0.23200
H1173       H  0.24564284  0.68580912  0.84477749     0.18600
H1174       H  0.28402707  0.79233483  0.89621247     0.17400
H1175       H  0.32265902  0.74739670  0.93523223     0.13700
H1176       H  0.20632495  0.73007100  0.80678413     0.13600
H1177       H  0.28817093  0.65820663  0.88977109     0.31700
H1178       H  0.24073224  0.81976490  0.85136521     0.34500
C1179       C  0.61427137  0.70704650  0.87858625     0.20100
C1180       C  0.63848821  0.70629556  0.85403411    -0.39800
C1181       C  0.64956573  0.73727712  0.84316466     0.19100
C1182       C  0.63737558  0.76663433  0.85565808     0.21700
C1183       C  0.61297200  0.76737617  0.87994974    -0.40300
C1184       C  0.60198983  0.73645174  0.89090251     0.20500
N1185       N  0.60018284  0.68111140  0.89362072    -0.33600
C1186       C  0.57867593  0.69403302  0.91566025    -0.11100
C1187       C  0.57914965  0.72861265  0.91453132    -0.29900
N1188       N  0.65249609  0.79263791  0.84188972    -0.46500
C1189       C  0.67495037  0.77999236  0.82063389    -0.05800
C1190       C  0.67329814  0.74531278  0.82046141    -0.23200
H1191       H  0.64828386  0.68333175  0.84443762     0.18600
H1192       H  0.60352055  0.79033748  0.88988645     0.17400
H1193       H  0.56506173  0.74603971  0.92893634     0.13700
H1194       H  0.68746539  0.72803637  0.80590266     0.13600
H1195       H  0.60486068  0.65608624  0.88922166     0.31700
H1196       H  0.64811593  0.81760335  0.84689815     0.34500
C1197       C  0.65806843  0.36198130  0.86199266     0.20100
C1198       C  0.65752087  0.38670265  0.88624785    -0.39800
C1199       C  0.62632373  0.39795366  0.89567076     0.19100
C1200       C  0.59787124  0.38551623  0.88210736     0.21700
C1201       C  0.59845447  0.36079528  0.85779203    -0.40300
C1202       C  0.62967687  0.34958513  0.84830198     0.20500
N1203       N  0.68453657  0.34739871  0.84865922    -0.33600
C1204       C  0.67322054  0.32527271  0.82618162    -0.11100
C1205       C  0.63885181  0.32623519  0.82532299    -0.29900
N1206       N  0.57140431  0.40041201  0.89529065    -0.46500
C1207       C  0.58295171  0.42273938  0.91734858    -0.05800
C1208       C  0.61728403  0.42170347  0.91822146    -0.23200
H1209       H  0.67974795  0.39653606  0.89691691     0.18600
H1210       H  0.57625398  0.35106930  0.84698979     0.17400
H1211       H  0.62253625  0.31207447  0.80984052     0.13700
H1212       H  0.63385302  0.43601082  0.93322501     0.13600
H1213       H  0.70899968  0.35237609  0.85434857     0.31700
H1214       H  0.54690469  0.39577583  0.88960830     0.34500
C1215       C  0.23664488  0.36070831  0.86513897     0.20100
C1216       C  0.23660294  0.38545343  0.88932154    -0.39800
C1217       C  0.26753200  0.39704088  0.89881099     0.19100
C1218       C  0.29627038  0.38495036  0.88532164     0.21700
C1219       C  0.29630726  0.35997457  0.86134419    -0.40300
C1220       C  0.26535701  0.34836462  0.85186956     0.20500
N1221       N  0.21050457  0.34620143  0.85133038    -0.33600
C1222       C  0.22240389  0.32425381  0.82893776    -0.11100
C1223       C  0.25678613  0.32487320  0.82897767    -0.29900
N1224       N  0.32235365  0.40047720  0.89818732    -0.52900
C1225       C  0.31023315  0.42263075  0.92014838    -0.05800
C1226       C  0.27597676  0.42106914  0.92115081    -0.23200
H1227       H  0.21414915  0.39518778  0.89974889     0.18600
H1228       H  0.31873608  0.35048890  0.85064971     0.17400
H1229       H  0.27353921  0.31043408  0.81412572     0.13700
H1230       H  0.25908693  0.43537169  0.93591377     0.13600
H1231       H  0.18590968  0.35105584  0.85668515     0.31700
H1232       H  0.34696297  0.39629707  0.89244750     0.34500
C1233       C  0.27744997  0.40358122  0.22388744     0.20100
C1234       C  0.25384219  0.40209616  0.24910962    -0.39800
C1235       C  0.24320286  0.37018946  0.25786663     0.19100
C1236       C  0.25525100  0.34201081  0.24284178     0.21700
C1237       C  0.27868798  0.34350168  0.21760112    -0.40300
C1238       C  0.28924803  0.37532286  0.20881541     0.20500
N1239       N  0.29170319  0.43072531  0.21102780    -0.33600
C1240       C  0.31285848  0.41972379  0.18757555    -0.11100
C1241       C  0.31177155  0.38512960  0.18560933    -0.29900
N1242       N  0.24144754  0.31474286  0.25570972    -0.46500
C1243       C  0.21966508  0.32536033  0.27873096    -0.05800
C1244       C  0.22065248  0.36002729  0.28103432    -0.23200
H1245       H  0.24444337  0.42410846  0.26102264     0.18600
H1246       H  0.28808335  0.32148016  0.20569866     0.17400
H1247       H  0.32531973  0.36880094  0.16953200     0.13700
H1248       H  0.20701759  0.37592327  0.29753126     0.13600
H1249       H  0.28739994  0.45527563  0.21779051     0.31700
H1250       H  0.24631582  0.29027347  0.24903334     0.34500
C1251       C  0.61716929  0.70618549  0.22525519     0.20100
C1252       C  0.64100426  0.70546531  0.25015562    -0.39800
C1253       C  0.65200456  0.73647769  0.26088644     0.19100
C1254       C  0.64018916  0.76573512  0.24776664     0.21700
C1255       C  0.61634433  0.76646072  0.22304963    -0.40300
C1256       C  0.60536252  0.73556951  0.21237132     0.20500
N1257       N  0.60259077  0.68027309  0.21078955    -0.33600
C1258       C  0.58130502  0.69328530  0.18858785    -0.11100
C1259       C  0.58244935  0.72782375  0.18895588    -0.29900
N1260       N  0.65456933  0.79178671  0.26192667    -0.46500
C1261       C  0.67604186  0.77937229  0.28432856    -0.05800
C1262       C  0.67475360  0.74468851  0.28450178    -0.23200
H1263       H  0.65027357  0.68253525  0.26037795     0.18600
H1264       H  0.60703703  0.78939923  0.21287332     0.17400
H1265       H  0.56856151  0.74532625  0.17442627     0.13700
H1266       H  0.68834466  0.72756285  0.29979677     0.13600
H1267       H  0.60669935  0.65524250  0.21574488     0.31700
H1268       H  0.65006134  0.81670204  0.25668347     0.34500
C1269       C  0.62469284  0.39865629  0.21053536     0.20100
C1270       C  0.65663609  0.38933722  0.21941302    -0.39800
C1271       C  0.65905278  0.36530599  0.24424106     0.19100
C1272       C  0.63182134  0.35163429  0.25917394     0.21700
C1273       C  0.59983925  0.36108104  0.25039059    -0.40300
C1274       C  0.59739653  0.38505039  0.22542882     0.20500
N1275       N  0.61590948  0.42095606  0.18759898    -0.33600
C1276       C  0.58261923  0.42171711  0.18779931    -0.11100
C1277       C  0.57028883  0.39950346  0.21108681    -0.29900
N1278       N  0.64072749  0.32873574  0.28153987    -0.46500
C1279       C  0.67402437  0.32729657  0.28050764    -0.05800
C1280       C  0.68616254  0.35039665  0.25788621    -0.23200
H1281       H  0.67803407  0.39985423  0.20768340     0.18600
H1282       H  0.57844660  0.35036470  0.26193860     0.17400
H1283       H  0.54483513  0.39481970  0.21685507     0.13700
H1284       H  0.71156080  0.35503796  0.25181691     0.13600
H1285       H  0.63200739  0.43467572  0.17309955     0.31700
H1286       H  0.62482015  0.31510235  0.29637277     0.34500
C1287       C  0.25293964  0.76748795  0.24829400     0.20100
C1288       C  0.27571024  0.76782983  0.22247884    -0.39800
C1289       C  0.28785985  0.73684546  0.21300825     0.19100
C1290       C  0.27799948  0.70775268  0.22791917     0.21700
C1291       C  0.25543746  0.70743904  0.25397814    -0.40300
C1292       C  0.24337406  0.73848363  0.26355592     0.20500
N1293       N  0.23744158  0.79358323  0.26150372    -0.33600
C1294       C  0.21777715  0.78131726  0.28555303    -0.11100
C1295       C  0.22110460  0.74685312  0.28758686    -0.29900
N1296       N  0.29277970  0.68161921  0.21388861    -0.46500
C1297       C  0.31251640  0.69417734  0.19010706    -0.05800
C1298       C  0.30995043  0.72864700  0.18883773    -0.23200
H1299       H  0.28328703  0.79051501  0.21054574     0.18600
H1300       H  0.24770612  0.68473589  0.26577083     0.17400
H1301       H  0.20904717  0.72999705  0.30434702     0.13700
H1302       H  0.32203137  0.74574409  0.17239310     0.13600
H1303       H  0.23999038  0.81833642  0.25457864     0.31700
H1304       H  0.28979962  0.65674350  0.22015791     0.34500
loop_ 
_geom_bond_atom_site_label_1 
_geom_bond_atom_site_label_2 
_geom_bond_distance 
_geom_bond_site_symmetry_2 
_ccdc_geom_bond_type 
C1            C2   1.564       .  S
C1            C7   1.563       .  S
C1            C5   1.567       .  S
C1         C1297   1.505       .  S
C2            H9   1.085       .  S
C2            C3   1.364       .  D
C3            C4   1.531       .  S
C3           C60   1.500       .  S
C4            C8   1.532       .  S
C4            C6   1.527       .  S
C4           H10   1.095       .  S
C5           H11   1.083       .  S
C5            C6   1.359       .  D
C6          C138   1.495       .  S
C7           H12   1.086       .  S
C7            C8   1.364       .  D
C8          C122   1.497       .  S
C13          C14   1.569       .  S
C13          C19   1.567       .  S
C13          C17   1.566       .  S
C13        C1276   1.515       .  S
C14          H21   1.082       .  S
C14          C15   1.362       .  D
C15          C16   1.526       .  S
C15         C150   1.498       .  S
C16          C20   1.529       .  S
C16          C18   1.532       .  S
C16          H22   1.094       .  S
C17          H23   1.085       .  S
C17          C18   1.364       .  D
C18          C59   1.503       .  S
C19          H24   1.085       .  S
C19          C20   1.366       .  D
C20         C165   1.502       .  S
C25          C26   1.567       .  S
C25          C31   1.564       .  S
C25          C29   1.564       .  S
C25        C1258   1.505       .  S
C26          H33   1.082       .  S
C26          C27   1.359       .  D
C27          C28   1.527       .  S
C27         C135   1.493       .  S
C28          C32   1.529       .  S
C28          C30   1.532       .  S
C28          H34   1.095       .  S
C29          H35   1.085       .  S
C29          C30   1.363       .  D
C30          C62   1.500       .  S
C31          H36   1.085       .  S
C31          C32   1.365       .  D
C32         C151   1.499       .  S
C37          C38   1.568       .  S
C37          C43   1.567       .  S
C37          C41   1.568       .  S
C37        C1240   1.521       .  S
C38          H45   1.082       .  S
C38          C39   1.358       .  D
C39          C40   1.525       .  S
C39         C164   1.496       .  S
C40          C44   1.531       .  S
C40          C42   1.531       .  S
C40          H46   1.095       .  S
C41          H47   1.085       .  S
C41          C42   1.368       .  D
C42          C61   1.504       .  S
C43          H48   1.085       .  S
C43          C44   1.368       .  D
C44         C123   1.504       .  S
O49         Cu57   2.126       .  S
O49          C59   1.289       .  A
O50         Cu57   2.121       .  S
O50          C60   1.288       .  A
O51         Cu57   2.125       .  S
O51          C61   1.288       .  A
O52         Cu57   2.124       .  S
O52          C62   1.288       .  A
O53         Cu58   1.894       .  S
O53          C62   1.262       .  A
O54         Cu58   1.901       .  S
O54          C61   1.263       .  A
O55         Cu58   1.898       .  S
O55          C60   1.262       .  A
O56         Cu58   1.897       .  S
O56          C59   1.262       .  A
Cu57        Cu58   2.327       .  S
C63          C64   1.565       .  S
C63          C69   1.564       .  S
C63          C67   1.566       .  S
C63        C1225   1.512       .  S
C64          H71   1.082       .  S
C64          C65   1.358       .  D
C65          C66   1.527       .  S
C65         C121   1.491   1_556  S
C66          C70   1.530       .  S
C66          C68   1.532       .  S
C66          H72   1.097       .  S
C67          H73   1.085       .  S
C67          C68   1.367       .  D
C68         C177   1.501       .  S
C69          H74   1.085       .  S
C69          C70   1.365       .  D
C70         C166   1.499   1_556  S
C75          C76   1.571       .  S
C75          C81   1.565       .  S
C75          C79   1.566       .  S
C75        C1207   1.520       .  S
C76          H83   1.085       .  S
C76          C77   1.370       .  D
C77          C78   1.530       .  S
C77         C180   1.510       .  S
C78          C82   1.531       .  S
C78          C80   1.527       .  S
C78          H84   1.096       .  S
C79          H85   1.082       .  S
C79          C80   1.359       .  D
C80         C152   1.495   1_556  S
C81          H86   1.085       .  S
C81          C82   1.366       .  D
C82         C163   1.498   1_556  S
C87          C88   1.561       .  S
C87          C93   1.566       .  S
C87          C91   1.567       .  S
C87        C1186   1.510       .  S
C88          H95   1.086       .  S
C88          C89   1.362       .  D
C89          C90   1.531       .  S
C89         C178   1.496       .  S
C90          C94   1.529       .  S
C90          C92   1.529       .  S
C90          H96   1.097       .  S
C91          H97   1.083       .  S
C91          C92   1.361       .  D
C92         C137   1.494   1_556  S
C93          H98   1.085       .  S
C93          C94   1.367       .  D
C94         C149   1.500   1_556  S
C99         C100   1.565       .  S
C99         C105   1.564       .  S
C99         C103   1.564       .  S
C99        C1168   1.508       .  S
C100        H107   1.085       .  S
C100        C101   1.366       .  D
C101        C102   1.532       .  S
C101        C124   1.501   1_556  S
C102        C106   1.530       .  S
C102        C104   1.528       .  S
C102        H108   1.097       .  S
C103        H109   1.083       .  S
C103        C104   1.359       .  D
C104        C136   1.489   1_556  S
C105        H110   1.085       .  S
C105        C106   1.364       .  D
C106        C179   1.501       .  S
O111       Cu119   1.901       .  S
O111        C121   1.263       .  A
O112       Cu119   1.893       .  S
O112        C122   1.262       .  A
O113       Cu119   1.904       .  S
O113        C123   1.264       .  A
O114       Cu119   1.903       .  S
O114        C124   1.263       .  A
O115       Cu120   2.121       .  S
O115        C124   1.288       .  A
O116       Cu120   2.122       .  S
O116        C123   1.288       .  A
O117       Cu120   2.116       .  S
O117        C122   1.287       .  A
O118       Cu120   2.105       .  S
O118        C121   1.287       .  A
Cu119      Cu120   2.332       .  S
O125       Cu133   1.898       .  S
O125        C135   1.263       .  A
O126       Cu133   1.902       .  S
O126        C136   1.263       .  A
O127       Cu133   1.901       .  S
O127        C137   1.263       .  A
O128       Cu133   1.902       .  S
O128        C138   1.263       .  A
O129       Cu134   2.109       .  S
O129        C138   1.287       .  A
O130       Cu134   2.109       .  S
O130        C137   1.287       .  A
O131       Cu134   2.099       .  S
O131        C136   1.286       .  A
O132       Cu134   2.106       .  S
O132        C135   1.286       .  A
Cu133      Cu134   2.338       .  S
O139       Cu147   1.912       .  S
O139        C149   1.265       .  A
O140       Cu147   1.910       .  S
O140        C150   1.265       .  A
O141       Cu147   1.905       .  S
O141        C151   1.264       .  A
O142       Cu147   1.907       .  S
O142        C152   1.264       .  A
O143       Cu148   2.109       .  S
O143        C152   1.288       .  A
O144       Cu148   2.112       .  S
O144        C151   1.287       .  A
O145       Cu148   2.111       .  S
O145        C150   1.287       .  A
O146       Cu148   2.113       .  S
O146        C149   1.287       .  A
Cu147      Cu148   2.332       .  S
O153       Cu161   1.902       .  S
O153        C163   1.263       .  A
O154       Cu161   1.909       .  S
O154        C164   1.264       .  A
O155       Cu161   1.904       .  S
O155        C165   1.264       .  A
O156       Cu161   1.909       .  S
O156        C166   1.264       .  A
O157       Cu162   2.114       .  S
O157        C166   1.288       .  A
O158       Cu162   2.119       .  S
O158        C165   1.287       .  A
O159       Cu162   2.108       .  S
O159        C164   1.288       .  A
O160       Cu162   2.113       .  S
O160        C163   1.287       .  A
Cu161      Cu162   2.338       .  S
O167       Cu175   1.909       .  S
O167        C177   1.263       .  A
O168       Cu175   1.907       .  S
O168        C178   1.263       .  A
O169       Cu175   1.918       .  S
O169        C179   1.264       .  A
O170       Cu175   1.923       .  S
O170        C180   1.266       .  A
O171       Cu176   2.129       .  S
O171        C180   1.289       .  A
O172       Cu176   2.122       .  S
O172        C179   1.288       .  A
O173       Cu176   2.114       .  S
O173        C178   1.288       .  A
O174       Cu176   2.121       .  S
O174        C177   1.288       .  A
Cu175      Cu176   2.300       .  S
C181        C182   1.568       .  S
C181        C187   1.565       .  S
C181        C185   1.568       .  S
C181       C1150   1.516       .  S
C182        H189   1.082       .  S
C182        C183   1.357       .  D
C183        C184   1.526       .  S
C183        C318   1.497       .  S
C184        C188   1.531       .  S
C184        C186   1.530       .  S
C184        H190   1.095       .  S
C185        H191   1.085       .  S
C185        C186   1.369       .  D
C186        C304   1.501       .  S
C187        H192   1.085       .  S
C187        C188   1.366       .  D
C188        C242   1.500       .  S
C193        C194   1.568       .  S
C193        C199   1.566       .  S
C193        C197   1.565       .  S
C193       C1132   1.516       .  S
C194        H201   1.085       .  S
C194        C195   1.368       .  D
C195        C196   1.531       .  S
C195        C239   1.504       .  S
C196        C200   1.526       .  S
C196        C198   1.532       .  S
C196        H202   1.095       .  S
C197        H203   1.085       .  S
C197        C198   1.366       .  D
C198        C301   1.501       .  S
C199        H204   1.082       .  S
C199        C200   1.357       .  D
C200        C343   1.493       .  S
C205        C206   1.563       .  S
C205        C211   1.564       .  S
C205        C209   1.570       .  S
C205       C1117   1.510       .  S
C206        H213   1.086       .  S
C206        C207   1.363       .  D
C207        C208   1.531       .  S
C207        C315   1.497       .  S
C208        C212   1.530       .  S
C208        C210   1.530       .  S
C208        H214   1.095       .  S
C209        H215   1.083       .  S
C209        C210   1.363       .  D
C210        C240   1.500       .  S
C211        H216   1.085       .  S
C211        C212   1.364       .  D
C212        C331   1.501       .  S
C217        C218   1.566       .  S
C217        C223   1.566       .  S
C217        C221   1.565       .  S
C217       C1096   1.512       .  S
C218        H225   1.083       .  S
C218        C219   1.361       .  D
C219        C220   1.531       .  S
C219        C241   1.496       .  S
C220        C224   1.530       .  S
C220        C222   1.528       .  S
C220        H226   1.096       .  S
C221        H227   1.085       .  S
C221        C222   1.364       .  D
C222        C345   1.501       .  S
C223        H228   1.085       .  S
C223        C224   1.366       .  D
C224        C330   1.499       .  S
O229       Cu237   1.901       .  S
O229        C239   1.263       .  A
O230       Cu237   1.901       .  S
O230        C240   1.263       .  A
O231       Cu237   1.893       .  S
O231        C241   1.262       .  A
O232       Cu237   1.898       .  S
O232        C242   1.263       .  A
O233       Cu238   2.117       .  S
O233        C242   1.288       .  A
O234       Cu238   2.114       .  S
O234        C241   1.288       .  A
O235       Cu238   2.120       .  S
O235        C240   1.288       .  A
O236       Cu238   2.125       .  S
O236        C239   1.288       .  A
Cu237      Cu238   2.337       .  S
C243        C244   1.566       .  S
C243        C249   1.566       .  S
C243        C247   1.567       .  S
C243       C1078   1.511       .  S
C244        H251   1.085       .  S
C244        C245   1.366       .  D
C245        C246   1.530       .  S
C245        C346   1.500   1_565  S
C246        C250   1.531       .  S
C246        C248   1.526       .  S
C246        H252   1.095       .  S
C247        H253   1.081       .  S
C247        C248   1.356       .  D
C248        C303   1.493   1_565  S
C249        H254   1.085       .  S
C249        C250   1.366       .  D
C250        C360   1.500       .  S
C255        C256   1.567       .  S
C255        C261   1.565       .  S
C255        C259   1.567       .  S
C255       C1060   1.511       .  S
C256        H263   1.083       .  S
C256        C257   1.362       .  D
C257        C258   1.529       .  S
C257        C332   1.498   1_565  S
C258        C262   1.529       .  S
C258        C260   1.528       .  S
C258        H264   1.095       .  S
C259        H265   1.085       .  S
C259        C260   1.365       .  D
C260        C344   1.501   1_565  S
C261        H266   1.086       .  S
C261        C262   1.363       .  D
C262        C357   1.498       .  S
C267        C268   1.565       .  S
C267        C273   1.571       .  S
C267        C271   1.564       .  S
C267       C1042   1.514       .  S
C268        H275   1.085       .  S
C268        C269   1.364       .  D
C269        C270   1.529       .  S
C269        C359   1.501       .  S
C270        C274   1.528       .  S
C270        C272   1.530       .  S
C270        H276   1.095       .  S
C271        H277   1.085       .  S
C271        C272   1.364       .  D
C272        C317   1.499   1_565  S
C273        H278   1.082       .  S
C273        C274   1.364       .  D
C274        C329   1.499   1_565  S
C279        C280   1.569       .  S
C279        C285   1.564       .  S
C279        C283   1.566       .  S
C279       C1024   1.515       .  S
C280        H287   1.083       .  S
C280        C281   1.362       .  D
C281        C282   1.528       .  S
C281        C358   1.497       .  S
C282        C286   1.529       .  S
C282        C284   1.531       .  S
C282        H288   1.096       .  S
C283        H289   1.085       .  S
C283        C284   1.366       .  D
C284        C302   1.501   1_565  S
C285        H290   1.085       .  S
C285        C286   1.365       .  D
C286        C316   1.498   1_565  S
O291       Cu299   2.121       .  S
O291        C301   1.288       .  A
O292       Cu299   2.117       .  S
O292        C302   1.288       .  A
O293       Cu299   2.107       .  S
O293        C303   1.288       .  A
O294       Cu299   2.120       .  S
O294        C304   1.287       .  A
O295       Cu300   1.900       .  S
O295        C304   1.263       .  A
O296       Cu300   1.903       .  S
O296        C303   1.263       .  A
O297       Cu300   1.903       .  S
O297        C302   1.264       .  A
O298       Cu300   1.900       .  S
O298        C301   1.263       .  A
Cu299      Cu300   2.332       .  S
O305       Cu313   1.901       .  S
O305        C315   1.263       .  A
O306       Cu313   1.906       .  S
O306        C316   1.264       .  A
O307       Cu313   1.905       .  S
O307        C317   1.264       .  A
O308       Cu313   1.908       .  S
O308        C318   1.264       .  A
O309       Cu314   2.112       .  S
O309        C318   1.288       .  A
O310       Cu314   2.115       .  S
O310        C317   1.287       .  A
O311       Cu314   2.114       .  S
O311        C316   1.287       .  A
O312       Cu314   2.115       .  S
O312        C315   1.287       .  A
Cu313      Cu314   2.324       .  S
O319       Cu327   1.902       .  S
O319        C329   1.263       .  A
O320       Cu327   1.900       .  S
O320        C330   1.263       .  A
O321       Cu327   1.903       .  S
O321        C331   1.263       .  A
O322       Cu327   1.901       .  S
O322        C332   1.263       .  A
O323       Cu328   2.113       .  S
O323        C332   1.287       .  A
O324       Cu328   2.118       .  S
O324        C331   1.288       .  A
O325       Cu328   2.117       .  S
O325        C330   1.287       .  A
O326       Cu328   2.117       .  S
O326        C329   1.288       .  A
Cu327      Cu328   2.335       .  S
O333       Cu341   2.104       .  S
O333        C343   1.287       .  A
O334       Cu341   2.116       .  S
O334        C344   1.287       .  A
O335       Cu341   2.117       .  S
O335        C345   1.288       .  A
O336       Cu341   2.119       .  S
O336        C346   1.287       .  A
O337       Cu342   1.904       .  S
O337        C346   1.263       .  A
O338       Cu342   1.914       .  S
O338        C345   1.265       .  A
O339       Cu342   1.910       .  S
O339        C344   1.264       .  A
O340       Cu342   1.909       .  S
O340        C343   1.264       .  A
Cu341      Cu342   2.320       .  S
O347       Cu355   2.117       .  S
O347        C357   1.287       .  A
O348       Cu355   2.112       .  S
O348        C358   1.288       .  A
O349       Cu355   2.118       .  S
O349        C359   1.288       .  A
O350       Cu355   2.118       .  S
O350        C360   1.287       .  A
O351       Cu356   1.901       .  S
O351        C360   1.263       .  A
O352       Cu356   1.903       .  S
O352        C359   1.264       .  A
O353       Cu356   1.902       .  S
O353        C358   1.263       .  A
O354       Cu356   1.898       .  S
O354        C357   1.263       .  A
Cu355      Cu356   2.338       .  S
C361        C362   1.569       .  S
C361        C367   1.565       .  S
C361        C365   1.564       .  S
C361       C1009   1.509       .  S
C362        H369   1.083       .  S
C362        C363   1.361       .  D
C363        C364   1.528       .  S
C363        C463   1.495       .  S
C364        C368   1.530       .  S
C364        C366   1.531       .  S
C364        H370   1.094       .  S
C365        H371   1.085       .  S
C365        C366   1.365       .  D
C366        C433   1.500       .  S
C367        H372   1.085       .  S
C367        C368   1.364       .  D
C368        C478   1.501       .  S
C373        C374   1.563       .  S
C373        C379   1.573       .  S
C373        C377   1.565       .  S
C373        C988   1.513       .  S
C374        H381   1.085       .  S
C374        C375   1.362       .  D
C375        C376   1.529       .  S
C375        C450   1.497       .  S
C376        C380   1.528       .  S
C376        C378   1.531       .  S
C376        H382   1.093       .  S
C377        H383   1.085       .  S
C377        C378   1.365       .  D
C378        C461   1.500       .  S
C379        H384   1.082       .  S
C379        C380   1.363       .  D
C380        C476   1.504       .  S
C385        C386   1.567       .  S
C385        C391   1.569       .  S
C385        C389   1.569       .  S
C385        C973   1.518       .  S
C386        H393   1.085       .  S
C386        C387   1.367       .  D
C387        C388   1.530       .  S
C387        C419   1.505       .  S
C388        C392   1.531       .  S
C388        C390   1.527       .  S
C388        H394   1.093       .  S
C389        H395   1.082       .  S
C389        C390   1.358       .  D
C390        C448   1.498       .  S
C391        H396   1.085       .  S
C391        C392   1.368       .  D
C392        C477   1.503       .  S
C397        C398   1.570       .  S
C397        C403   1.566       .  S
C397        C401   1.564       .  S
C397        C955   1.513       .  S
C398        H405   1.083       .  S
C398        C399   1.365       .  D
C399        C400   1.530       .  S
C399        C436   1.500       .  S
C400        C404   1.530       .  S
C400        C402   1.530       .  S
C400        H406   1.094       .  S
C401        H407   1.085       .  S
C401        C402   1.363       .  D
C402        C422   1.500       .  S
C403        H408   1.085       .  S
C403        C404   1.365       .  D
C404        C475   1.504       .  S
O409       Cu417   2.123       .  S
O409        C419   1.288       .  A
O410       Cu417   2.119       .  S
O410        C420   1.288       .  A
O411       Cu417   2.118       .  S
O411        C421   1.288       .  A
O412       Cu417   2.121       .  S
O412        C422   1.288       .  A
O413       Cu418   1.898       .  S
O413        C422   1.262       .  A
O414       Cu418   1.898       .  S
O414        C421   1.262       .  A
O415       Cu418   1.904       .  S
O415        C420   1.264       .  A
O416       Cu418   1.905       .  S
O416        C419   1.264       .  A
Cu417      Cu418   2.334       .  S
C420        C508   1.501   1_655  S
C421        C496   1.499   1_655  S
O423       Cu431   1.895       .  S
O423        C433   1.262       .  A
O424       Cu431   1.900       .  S
O424        C434   1.263       .  A
O425       Cu431   1.899       .  S
O425        C435   1.263       .  A
O426       Cu431   1.899       .  S
O426        C436   1.263       .  A
O427       Cu432   2.115       .  S
O427        C436   1.287       .  A
O428       Cu432   2.112       .  S
O428        C435   1.287       .  A
O429       Cu432   2.123       .  S
O429        C434   1.288       .  A
O430       Cu432   2.121       .  S
O430        C433   1.288       .  A
Cu431      Cu432   2.337       .  S
C434        C510   1.502   1_655  S
C435        C484   1.497   1_655  S
O437       Cu445   2.118       .  S
O437        C447   1.288       .  A
O438       Cu445   2.114       .  S
O438        C448   1.288       .  A
O439       Cu445   2.114       .  S
O439        C449   1.288       .  A
O440       Cu445   2.116       .  S
O440        C450   1.287       .  A
O441       Cu446   1.895       .  S
O441        C450   1.262       .  A
O442       Cu446   1.896       .  S
O442        C449   1.262       .  A
O443       Cu446   1.903       .  S
O443        C448   1.263       .  A
O444       Cu446   1.902       .  S
O444        C447   1.263       .  A
Cu445      Cu446   2.339       .  S
C447        C520   1.501   1_655  S
C449        C493   1.497   1_655  S
O451       Cu459   2.119       .  S
O451        C461   1.287       .  A
O452       Cu459   2.120       .  S
O452        C462   1.288       .  A
O453       Cu459   2.112       .  S
O453        C463   1.287       .  A
O454       Cu459   2.114       .  S
O454        C464   1.287       .  A
O455       Cu460   1.892       .  S
O455        C464   1.262       .  A
O456       Cu460   1.895       .  S
O456        C463   1.262       .  A
O457       Cu460   1.905       .  S
O457        C462   1.264       .  A
O458       Cu460   1.898       .  S
O458        C461   1.263       .  A
Cu459      Cu460   2.339       .  S
C462        C486   1.503   1_655  S
C464        C517   1.496   1_655  S
O465       Cu473   1.902       .  S
O465        C475   1.263       .  A
O466       Cu473   1.902       .  S
O466        C476   1.263       .  A
O467       Cu473   1.896       .  S
O467        C477   1.262       .  A
O468       Cu473   1.901       .  S
O468        C478   1.263       .  A
O469       Cu474   2.120       .  S
O469        C478   1.288       .  A
O470       Cu474   2.125       .  S
O470        C477   1.288       .  A
O471       Cu474   2.124       .  S
O471        C476   1.289       .  A
O472       Cu474   2.125       .  S
O472        C475   1.288       .  A
Cu473      Cu474   2.337       .  S
C479        C480   1.563       .  S
C479        C485   1.571       .  S
C479        C483   1.564       .  S
C479        C934   1.510       .  S
C480        H487   1.085       .  S
C480        C481   1.364       .  D
C481        C482   1.531       .  S
C481        C537   1.499       .  S
C482        C486   1.528       .  S
C482        C484   1.529       .  S
C482        H488   1.094       .  S
C483        H489   1.085       .  S
C483        C484   1.363       .  D
C485        H490   1.083       .  S
C485        C486   1.365       .  D
C491        C492   1.570       .  S
C491        C497   1.565       .  S
C491        C495   1.563       .  S
C491        C919   1.512       .  S
C492        H499   1.082       .  S
C492        C493   1.363       .  D
C493        C494   1.528       .  S
C494        C498   1.531       .  S
C494        C496   1.531       .  S
C494        H500   1.095       .  S
C495        H501   1.085       .  S
C495        C496   1.363       .  D
C497        H502   1.085       .  S
C497        C498   1.364       .  D
C498        C538   1.502       .  S
C503        C504   1.571       .  S
C503        C509   1.566       .  S
C503        C507   1.566       .  S
C503        C898   1.517       .  S
C504        H511   1.083       .  S
C504        C505   1.365       .  D
C505        C506   1.529       .  S
C505        C540   1.502       .  S
C506        C510   1.531       .  S
C506        C508   1.529       .  S
C506        H512   1.095       .  S
C507        H513   1.085       .  S
C507        C508   1.365       .  D
C509        H514   1.085       .  S
C509        C510   1.365       .  D
C515        C516   1.563       .  S
C515        C521   1.567       .  S
C515        C519   1.571       .  S
C515        C880   1.512       .  S
C516        H523   1.086       .  S
C516        C517   1.362       .  D
C517        C518   1.530       .  S
C518        C522   1.530       .  S
C518        C520   1.529       .  S
C518        H524   1.094       .  S
C519        H525   1.082       .  S
C519        C520   1.363       .  D
C521        H526   1.085       .  S
C521        C522   1.365       .  D
C522        C539   1.503       .  S
O527       Cu535   1.892       .  S
O527        C537   1.262       .  A
O528       Cu535   1.903       .  S
O528        C538   1.263       .  A
O529       Cu535   1.903       .  S
O529        C539   1.263       .  A
O530       Cu535   1.904       .  S
O530        C540   1.264       .  A
O531       Cu536   2.120       .  S
O531        C540   1.288       .  A
O532       Cu536   2.124       .  S
O532        C539   1.288       .  A
O533       Cu536   2.120       .  S
O533        C538   1.288       .  A
O534       Cu536   2.121       .  S
O534        C537   1.288       .  A
Cu535      Cu536   2.331       .  S
C541        C865   1.532       .  S
C541        C883   1.527       .  S
C541       C1099   1.528       .  S
C541       C1243   1.534       .  S
C542        C847   1.532       .  S
C542        C991   1.531       .  S
C542       C1135   1.531       .  S
C542       C1279   1.532       .  S
C543        C826   1.539       .  S
C543        C916   1.541       .  S
C543       C1063   1.535       .  S
C543       C1294   1.525       .  S
C544        C811   1.539       .  S
C544        C937   1.535       .  S
C544       C1114   1.527       .  S
C544       C1222   1.534       .  S
C545        C790   1.537       .  S
C545       C1006   1.538       .  S
C545       C1153   1.530       .  S
C545       C1204   1.537       .  S
C546        C775   1.538       .  S
C546        C970   1.528       .  S
C546       C1081   1.537       .  S
C546       C1261   1.529       .  S
C547        C757   1.533       .  S
C547        C901   1.536       .  S
C547       C1045   1.531       .  S
C547       C1171   1.527       .  S
C548        C549   1.566       .  S
C548        C554   1.565       .  S
C548        C552   1.569       .  S
C548        C862   1.514       .  S
C549        H556   1.085       .  S
C549        C550   1.365       .  D
C550        C551   1.529       .  S
C550        C672   1.501   1_455  S
C551        C555   1.530       .  S
C551        C553   1.526       .  S
C551        H557   1.094       .  S
C552        H558   1.083       .  S
C552        C553   1.361       .  D
C553        C618   1.496   1_455  S
C554        H559   1.085       .  S
C554        C555   1.365       .  D
C555        C645   1.501       .  S
C560        C561   1.570       .  S
C560        C566   1.567       .  S
C560        C564   1.566       .  S
C560        C808   1.517       .  S
C561        H568   1.082       .  S
C561        C562   1.362       .  D
C562        C563   1.528       .  S
C562        C727   1.499   1_455  S
C563        C567   1.529       .  S
C563        C565   1.530       .  S
C563        H569   1.094       .  S
C564        H570   1.085       .  S
C564        C565   1.366       .  D
C565        C670   1.504   1_456  S
C566        H571   1.085       .  S
C566        C567   1.366       .  D
C567        C647   1.502   1_556  S
C572        C573   1.570       .  S
C572        C578   1.567       .  S
C572        C576   1.569       .  S
C572        C844   1.521       .  S
C573        H580   1.083       .  S
C573        C574   1.362       .  D
C574        C575   1.528       .  S
C574        C621   1.500       .  S
C575        C579   1.531       .  S
C575        C577   1.530       .  S
C575        H581   1.094       .  S
C576        H582   1.085       .  S
C576        C577   1.368       .  D
C577        C671   1.507       .  S
C578        H583   1.085       .  S
C578        C579   1.367       .  D
C579        C711   1.505       .  S
C584        C585   1.565       .  S
C584        C590   1.567       .  S
C584        C588   1.570       .  S
C584        C829   1.514       .  S
C585        H592   1.085       .  S
C585        C586   1.364       .  D
C586        C587   1.528       .  S
C586        C620   1.497   1_465  S
C587        C591   1.529       .  S
C587        C589   1.529       .  S
C587        H593   1.094       .  S
C588        H594   1.082       .  S
C588        C589   1.363       .  D
C589        C697   1.500   1_455  S
C590        H595   1.085       .  S
C590        C591   1.366       .  D
C591        C646   1.504   1_565  S
C596        C597   1.567       .  S
C596        C602   1.570       .  S
C596        C600   1.566       .  S
C596        C772   1.516       .  S
C597        H604   1.085       .  S
C597        C598   1.366       .  D
C598        C599   1.529       .  S
C598        C698   1.503       .  S
C599        C603   1.531       .  S
C599        C601   1.526       .  S
C599        H605   1.093       .  S
C600        H606   1.082       .  S
C600        C601   1.357       .  D
C601        C619   1.493   1_565  S
C602        H607   1.085       .  S
C602        C603   1.368       .  D
C603        C713   1.508   1_565  S
O608       Cu616   2.109       .  S
O608        C618   1.287       .  A
O609       Cu616   2.106       .  S
O609        C619   1.287       .  A
O610       Cu616   2.113       .  S
O610        C620   1.287       .  A
O611       Cu616   2.115       .  S
O611        C621   1.288       .  A
O612       Cu617   1.903       .  S
O612        C621   1.264       .  A
O613       Cu617   1.900       .  S
O613        C620   1.263       .  A
O614       Cu617   1.896       .  S
O614        C619   1.262       .  A
O615       Cu617   1.899       .  S
O615        C618   1.263       .  A
Cu616      Cu617   2.342       .  S
C622        C623   1.564       .  S
C622        C628   1.566       .  S
C622        C626   1.569       .  S
C622        C754   1.512       .  S
C623        H630   1.085       .  S
C623        C624   1.364       .  D
C624        C625   1.529       .  S
C624        C644   1.499   1_566  S
C625        C629   1.531       .  S
C625        C627   1.527       .  S
C625        H631   1.094       .  S
C626        H632   1.082       .  S
C626        C627   1.360       .  D
C627        C699   1.498   1_456  S
C628        H633   1.085       .  S
C628        C629   1.365       .  D
C629        C725   1.499   1_465  S
O634       Cu642   2.116       .  S
O634        C644   1.287       .  A
O635       Cu642   2.119       .  S
O635        C645   1.288       .  A
O636       Cu642   2.122       .  S
O636        C646   1.288       .  A
O637       Cu642   2.123       .  S
O637        C647   1.288       .  A
O638       Cu643   1.903       .  S
O638        C647   1.263       .  A
O639       Cu643   1.905       .  S
O639        C646   1.264       .  A
O640       Cu643   1.896       .  S
O640        C645   1.263       .  A
O641       Cu643   1.897       .  S
O641        C644   1.263       .  A
Cu642      Cu643   2.335       .  S
C648        C649   1.567       .  S
C648        C654   1.568       .  S
C648        C652   1.565       .  S
C648        C793   1.512       .  S
C649        H656   1.085       .  S
C649        C650   1.366       .  D
C650        C651   1.531       .  S
C650        C712   1.506   1_556  S
C651        C655   1.529       .  S
C651        C653   1.532       .  S
C651        H657   1.095       .  S
C652        H658   1.085       .  S
C652        C653   1.365       .  D
C653        C673   1.500   1_556  S
C654        H659   1.082       .  S
C654        C655   1.359       .  D
C655        C724   1.495       .  S
O660       Cu668   2.123       .  S
O660        C670   1.288       .  A
O661       Cu668   2.126       .  S
O661        C671   1.288       .  A
O662       Cu668   2.121       .  S
O662        C672   1.288       .  A
O663       Cu668   2.120       .  S
O663        C673   1.288       .  A
O664       Cu669   1.897       .  S
O664        C673   1.262       .  A
O665       Cu669   1.899       .  S
O665        C672   1.263       .  A
O666       Cu669   1.908       .  S
O666        C671   1.264       .  A
O667       Cu669   1.907       .  S
O667        C670   1.264       .  A
Cu668      Cu669   2.332       .  S
C674        C675   1.565       .  S
C674        C680   1.571       .  S
C674        C678   1.569       .  S
C674        C736   1.521       .  S
C675        H682   1.085       .  S
C675        C676   1.365       .  D
C676        C677   1.529       .  S
C676        C696   1.500   1_556  S
C677        C681   1.529       .  S
C677        C679   1.530       .  S
C677        H683   1.094       .  S
C678        H684   1.085       .  S
C678        C679   1.368       .  D
C679        C710   1.507   1_566  S
C680        H685   1.082       .  S
C680        C681   1.363       .  D
C681        C726   1.502   1_565  S
O686       Cu694   2.117       .  S
O686        C696   1.288       .  A
O687       Cu694   2.118       .  S
O687        C697   1.288       .  A
O688       Cu694   2.123       .  S
O688        C698   1.288       .  A
O689       Cu694   2.115       .  S
O689        C699   1.288       .  A
O690       Cu695   1.901       .  S
O690        C699   1.263       .  A
O691       Cu695   1.901       .  S
O691        C698   1.263       .  A
O692       Cu695   1.897       .  S
O692        C697   1.262       .  A
O693       Cu695   1.903       .  S
O693        C696   1.264       .  A
Cu694      Cu695   2.335       .  S
O700       Cu708   2.129       .  S
O700        C710   1.289       .  A
O701       Cu708   2.127       .  S
O701        C711   1.289       .  A
O702       Cu708   2.129       .  S
O702        C712   1.289       .  A
O703       Cu708   2.132       .  S
O703        C713   1.289       .  A
O704       Cu709   1.900       .  S
O704        C713   1.263       .  A
O705       Cu709   1.903       .  S
O705        C712   1.263       .  A
O706       Cu709   1.903       .  S
O706        C711   1.263       .  A
O707       Cu709   1.905       .  S
O707        C710   1.264       .  A
Cu708      Cu709   2.335       .  S
O714       Cu722   2.114       .  S
O714        C724   1.288       .  A
O715       Cu722   2.119       .  S
O715        C725   1.287       .  A
O716       Cu722   2.119       .  S
O716        C726   1.288       .  A
O717       Cu722   2.115       .  S
O717        C727   1.287       .  A
O718       Cu723   1.901       .  S
O718        C727   1.263       .  A
O719       Cu723   1.901       .  S
O719        C726   1.263       .  A
O720       Cu723   1.892       .  S
O720        C725   1.262       .  A
O721       Cu723   1.893       .  S
O721        C724   1.261       .  A
Cu722      Cu723   2.339       .  S
C728        C739   1.533       .  S
C728        C952   1.530       .  S
C728       C1027   1.535       .  S
C728       C1189   1.527       .  S
C729        C734   1.382       .  A
C729        C730   1.404       .  A
C729        N735   1.344       .  A
C730        C731   1.402       .  A
C730        H741   1.082       .  S
C731        C740   1.376       .  A
C731        C732   1.382       .  A
C732        C733   1.408       .  A
C732        N738   1.346       .  A
C733        C734   1.407       .  A
C733        H742   1.082       .  S
C734        C737   1.382       .  A
N735        C736   1.359       .  A
N735        H745   1.042       .  S
C736        C737   1.400       .  A
C737        H743   1.082       .  S
N738        C739   1.362       .  A
N738        H746   1.043       .  S
C739        C740   1.400       .  A
C740        H744   1.082       .  S
C747        C752   1.383       .  A
C747        C748   1.403       .  A
C747        N753   1.340       .  A
C748        C749   1.400       .  A
C748        H759   1.082       .  S
C749        C758   1.376       .  A
C749        C750   1.381       .  A
C750        C751   1.405       .  A
C750        N756   1.342       .  A
C751        C752   1.403       .  A
C751        H760   1.082       .  S
C752        C755   1.379       .  A
N753        C754   1.358       .  A
N753        H763   1.045       .  S
C754        C755   1.398       .  A
C755        H761   1.082       .  S
N756        C757   1.363       .  A
N756        H764   1.042       .  S
C757        C758   1.400       .  A
C758        H762   1.082       .  S
C765        C770   1.382       .  A
C765        C766   1.404       .  A
C765        N771   1.341       .  A
C766        C767   1.401       .  A
C766        H777   1.083       .  S
C767        C776   1.376       .  A
C767        C768   1.379       .  A
C768        C769   1.405       .  A
C768        N774   1.341       .  A
C769        C770   1.402       .  A
C769        H778   1.082       .  S
C770        C773   1.379       .  A
N771        C772   1.360       .  A
N771        H781   1.043       .  S
C772        C773   1.397       .  A
C773        H779   1.082       .  S
N774        C775   1.364       .  A
N774        H782   1.042       .  S
C775        C776   1.402       .  A
C776        H780   1.079       .  S
C783        C788   1.380       .  A
C783        C784   1.406       .  A
C783        N789   1.343       .  A
C784        C785   1.404       .  A
C784        H795   1.082       .  S
C785        C794   1.379       .  A
C785        C786   1.382       .  A
C786        C787   1.401       .  A
C786        N792   1.340       .  A
C787        C788   1.400       .  A
C787        H796   1.083       .  S
C788        C791   1.373       .  A
N789        C790   1.363       .  A
N789        H799   1.042       .  S
C790        C791   1.402       .  A
C791        H797   1.079       .  S
N792        C793   1.358       .  A
N792        H800   1.042       .  S
C793        C794   1.398       .  A
C794        H798   1.082       .  S
C801        C806   1.383       .  A
C801        C802   1.401       .  A
C801        N807   1.342       .  A
C802        C803   1.400       .  A
C802        H813   1.082       .  S
C803        C812   1.371       .  A
C803        C804   1.379       .  A
C804        C805   1.407       .  A
C804        N810   1.345       .  A
C805        C806   1.407       .  A
C805        H814   1.082       .  S
C806        C809   1.381       .  A
N807        C808   1.358       .  A
N807        H817   1.043       .  S
C808        C809   1.399       .  A
C809        H815   1.082       .  S
N810        C811   1.364       .  A
N810        H818   1.043       .  S
C811        C812   1.402       .  A
C812        H816   1.077       .  S
C819        C824   1.379       .  A
C819        C820   1.405       .  A
C819        N825   1.343       .  A
C820        C821   1.403       .  A
C820        H831   1.082       .  S
C821        C830   1.378       .  A
C821        C822   1.383       .  A
C822        C823   1.403       .  A
C822        N828   1.343       .  A
C823        C824   1.402       .  A
C823        H832   1.082       .  S
C824        C827   1.374       .  A
N825        C826   1.363       .  A
N825        H835   1.042       .  S
C826        C827   1.403       .  A
C827        H833   1.079       .  S
N828        C829   1.358       .  A
N828        H836   1.043       .  S
C829        C830   1.398       .  A
C830        H834   1.082       .  S
C837        C842   1.382       .  A
C837        C838   1.406       .  A
C837        N843   1.346       .  A
C838        C839   1.405       .  A
C838        H849   1.082       .  S
C839        C848   1.378       .  A
C839        C840   1.381       .  A
C840        C841   1.404       .  A
C840        N846   1.344       .  A
C841        C842   1.405       .  A
C841        H850   1.082       .  S
C842        C845   1.378       .  A
N843        C844   1.358       .  A
N843        H853   1.044       .  S
C844        C845   1.402       .  A
C845        H851   1.080       .  S
N846        C847   1.359       .  A
N846        H854   1.045       .  S
C847        C848   1.404       .  A
C848        H852   1.081       .  S
C855        C860   1.382       .  A
C855        C856   1.405       .  A
C855        N861   1.345       .  A
C856        C857   1.405       .  A
C856        H867   1.082       .  S
C857        C866   1.378       .  A
C857        C858   1.382       .  A
C858        C859   1.403       .  A
C858        N864   1.343       .  A
C859        C860   1.403       .  A
C859        H868   1.082       .  S
C860        C863   1.376       .  A
N861        C862   1.357       .  A
N861        H871   1.044       .  S
C862        C863   1.400       .  A
C863        H869   1.080       .  S
N864        C865   1.359       .  A
N864        H872   1.045       .  S
C865        C866   1.403       .  A
C866        H870   1.081       .  S
C873        C878   1.383       .  A
C873        C874   1.400       .  A
C873        N879   1.342       .  A
C874        C875   1.399       .  A
C874        H885   1.082       .  S
C875        C884   1.372       .  A
C875        C876   1.382       .  A
C876        C877   1.406       .  A
C876        N882   1.345       .  A
C877        C878   1.405       .  A
C877        H886   1.082       .  S
C878        C881   1.378       .  A
N879        C880   1.357       .  A
N879        H889   1.040       .  S
C880        C881   1.398       .  A
C881        H887   1.082       .  S
N882        C883   1.362       .  A
N882        H890   1.044       .  S
C883        C884   1.398       .  A
C884        H888   1.082       .  S
C891        C896   1.383       .  A
C891        C892   1.405       .  A
C891        N897   1.344       .  A
C892        C893   1.403       .  A
C892        H903   1.082       .  S
C893        C902   1.377       .  A
C893        C894   1.382       .  A
C894        C895   1.405       .  A
C894        N900   1.344       .  A
C895        C896   1.404       .  A
C895        H904   1.082       .  S
C896        C899   1.379       .  A
N897        C898   1.359       .  A
N897        H907   1.045       .  S
C898        C899   1.398       .  A
C899        H905   1.082       .  S
N900        C901   1.362       .  A
N900        H908   1.043       .  S
C901        C902   1.401       .  A
C902        H906   1.082       .  S
C909        C914   1.379       .  A
C909        C910   1.406       .  A
C909        N915   1.344       .  A
C910        C911   1.405       .  A
C910        H921   1.082       .  S
C911        C920   1.379       .  A
C911        C912   1.383       .  A
C912        C913   1.401       .  A
C912        N918   1.341       .  A
C913        C914   1.400       .  A
C913        H922   1.082       .  S
C914        C917   1.371       .  A
N915        C916   1.364       .  A
N915        H925   1.043       .  S
C916        C917   1.403       .  A
C917        H923   1.077       .  S
N918        C919   1.358       .  A
N918        H926   1.042       .  S
C919        C920   1.398       .  A
C920        H924   1.082       .  S
C927        C932   1.382       .  A
C927        C928   1.405       .  A
C927        N933   1.343       .  A
C928        C929   1.404       .  A
C928        H939   1.082       .  S
C929        C938   1.378       .  A
C929        C930   1.380       .  A
C930        C931   1.402       .  A
C930        N936   1.340       .  A
C931        C932   1.401       .  A
C931        H940   1.082       .  S
C932        C935   1.377       .  A
N933        C934   1.357       .  A
N933        H943   1.044       .  S
C934        C935   1.398       .  A
C935        H941   1.081       .  S
N936        C937   1.360       .  A
N936        H944   1.042       .  S
C937        C938   1.406       .  A
C938        H942   1.080       .  S
C945        C950   1.382       .  A
C945        C946   1.404       .  A
C945        N951   1.342       .  A
C946        C947   1.403       .  A
C946        H957   1.082       .  S
C947        C956   1.380       .  A
C947        C948   1.382       .  A
C948        C949   1.405       .  A
C948        N954   1.343       .  A
C949        C950   1.404       .  A
C949        H958   1.082       .  S
C950        C953   1.381       .  A
N951        C952   1.359       .  A
N951        H961   1.044       .  S
C952        C953   1.402       .  A
C953        H959   1.082       .  S
N954        C955   1.357       .  A
N954        H962   1.044       .  S
C955        C956   1.400       .  A
C956        H960   1.081       .  S
C963        C968   1.382       .  A
C963        C964   1.407       .  A
C963        N969   1.344       .  A
C964        C965   1.405       .  A
C964        H975   1.082       .  S
C965        C974   1.382       .  A
C965        C966   1.382       .  A
C966        C967   1.402       .  A
C966        N972   1.340       .  A
C967        C968   1.399       .  A
C967        H976   1.082       .  S
C968        C971   1.374       .  A
N969        C970   1.362       .  A
N969        H979   1.043       .  S
C970        C971   1.398       .  A
C971        H977   1.082       .  S
N972        C973   1.359       .  A
N972        H980   1.042       .  S
C973        C974   1.399       .  A
C974        H978   1.082       .  S
C981        C986   1.383       .  A
C981        C982   1.400       .  A
C981        N987   1.340       .  A
C982        C983   1.398       .  A
C982        H993   1.082       .  S
C983        C992   1.372       .  A
C983        C984   1.382       .  A
C984        C985   1.407       .  A
C984        N990   1.345       .  A
C985        C986   1.406       .  A
C985        H994   1.082       .  S
C986        C989   1.380       .  A
N987        C988   1.356       .  A
N987        H997   1.042       .  S
C988        C989   1.400       .  A
C989        H995   1.082       .  S
N990        C991   1.362       .  A
N990        H998   1.043       .  S
C991        C992   1.398       .  A
C992        H996   1.082       .  S
C999       C1004   1.380       .  A
C999       C1000   1.401       .  A
C999       N1005   1.339       .  A
C1000      C1001   1.399       .  A
C1000      H1011   1.083       .  S
C1001      C1010   1.373       .  A
C1001      C1002   1.382       .  A
C1002      C1003   1.405       .  A
C1002      N1008   1.344       .  A
C1003      C1004   1.405       .  A
C1003      H1012   1.082       .  S
C1004      C1007   1.378       .  A
N1005      C1006   1.360       .  A
N1005      H1015   1.041       .  S
C1006      C1007   1.406       .  A
C1007      H1013   1.081       .  S
N1008      C1009   1.357       .  A
N1008      H1016   1.044       .  S
C1009      C1010   1.398       .  A
C1010      H1014   1.080       .  S
C1017      C1022   1.382       .  A
C1017      C1018   1.404       .  A
C1017      N1023   1.345       .  A
C1018      C1019   1.405       .  A
C1018      H1029   1.082       .  S
C1019      C1028   1.376       .  A
C1019      C1020   1.381       .  A
C1020      C1021   1.404       .  A
C1020      N1026   1.345       .  A
C1021      C1022   1.404       .  A
C1021      H1030   1.082       .  S
C1022      C1025   1.377       .  A
N1023      C1024   1.357       .  A
N1023      H1033   1.044       .  S
C1024      C1025   1.400       .  A
C1025      H1031   1.080       .  S
N1026      C1027   1.360       .  A
N1026      H1034   1.044       .  S
C1027      C1028   1.404       .  A
C1028      H1032   1.080       .  S
C1035      C1040   1.383       .  A
C1035      C1036   1.402       .  A
C1035      N1041   1.342       .  A
C1036      C1037   1.400       .  A
C1036      H1047   1.082       .  S
C1037      C1046   1.375       .  A
C1037      C1038   1.382       .  A
C1038      C1039   1.406       .  A
C1038      N1044   1.343       .  A
C1039      C1040   1.404       .  A
C1039      H1048   1.083       .  S
C1040      C1043   1.379       .  A
N1041      C1042   1.358       .  A
N1041      H1051   1.042       .  S
C1042      C1043   1.399       .  A
C1043      H1049   1.082       .  S
N1044      C1045   1.363       .  A
N1044      H1052   1.043       .  S
C1045      C1046   1.398       .  A
C1046      H1050   1.082       .  S
C1053      C1058   1.383       .  A
C1053      C1054   1.403       .  A
C1053      N1059   1.343       .  A
C1054      C1055   1.402       .  A
C1054      H1065   1.082       .  S
C1055      C1064   1.375       .  A
C1055      C1056   1.382       .  A
C1056      C1057   1.403       .  A
C1056      N1062   1.342       .  A
C1057      C1058   1.401       .  A
C1057      H1066   1.082       .  S
C1058      C1061   1.375       .  A
N1059      C1060   1.359       .  A
N1059      H1069   1.043       .  S
C1060      C1061   1.395       .  A
C1061      H1067   1.082       .  S
N1062      C1063   1.362       .  A
N1062      H1070   1.044       .  S
C1063      C1064   1.402       .  A
C1064      H1068   1.083       .  S
C1071      C1076   1.382       .  A
C1071      C1072   1.400       .  A
C1071      N1077   1.338       .  A
C1072      C1073   1.397       .  A
C1072      H1083   1.082       .  S
C1073      C1082   1.371       .  A
C1073      C1074   1.379       .  A
C1074      C1075   1.406       .  A
C1074      N1080   1.342       .  A
C1075      C1076   1.404       .  A
C1075      H1084   1.082       .  S
C1076      C1079   1.380       .  A
N1077      C1078   1.358       .  A
N1077      H1087   1.041       .  S
C1078      C1079   1.398       .  A
C1079      H1085   1.082       .  S
N1080      C1081   1.365       .  A
N1080      H1088   1.043       .  S
C1081      C1082   1.400       .  A
C1082      H1086   1.078       .  S
C1089      C1094   1.383       .  A
C1089      C1090   1.403       .  A
C1089      N1095   1.343       .  A
C1090      C1091   1.403       .  A
C1090      H1101   1.082       .  S
C1091      C1100   1.377       .  A
C1091      C1092   1.382       .  A
C1092      C1093   1.404       .  A
C1092      N1098   1.344       .  A
C1093      C1094   1.404       .  A
C1093      H1102   1.082       .  S
C1094      C1097   1.378       .  A
N1095      C1096   1.356       .  A
N1095      H1105   1.044       .  S
C1096      C1097   1.401       .  A
C1097      H1103   1.080       .  S
N1098      C1099   1.359       .  A
N1098      H1106   1.045       .  S
C1099      C1100   1.402       .  A
C1100      H1104   1.081       .  S
C1107      C1112   1.383       .  A
C1107      C1108   1.401       .  A
C1107      N1113   1.341       .  A
C1108      C1109   1.400       .  A
C1108      H1119   1.082       .  S
C1109      C1118   1.375       .  A
C1109      C1110   1.383       .  A
C1110      C1111   1.405       .  A
C1110      N1116   1.344       .  A
C1111      C1112   1.404       .  A
C1111      H1120   1.082       .  S
C1112      C1115   1.378       .  A
N1113      C1114   1.358       .  A
N1113      H1123   1.044       .  S
C1114      C1115   1.402       .  A
C1115      H1121   1.082       .  S
N1116      C1117   1.358       .  A
N1116      H1124   1.044       .  S
C1117      C1118   1.398       .  A
C1118      H1122   1.080       .  S
C1125      C1130   1.382       .  A
C1125      C1126   1.405       .  A
C1125      N1131   1.346       .  A
C1126      C1127   1.405       .  A
C1126      H1137   1.082       .  S
C1127      C1136   1.377       .  A
C1127      C1128   1.382       .  A
C1128      C1129   1.402       .  A
C1128      N1134   1.343       .  A
C1129      C1130   1.403       .  A
C1129      H1138   1.082       .  S
C1130      C1133   1.374       .  A
N1131      C1132   1.357       .  A
N1131      H1141   1.044       .  S
C1132      C1133   1.401       .  A
C1133      H1139   1.080       .  S
N1134      C1135   1.358       .  A
N1134      H1142   1.045       .  S
C1135      C1136   1.405       .  A
C1136      H1140   1.081       .  S
C1143      C1148   1.382       .  A
C1143      C1144   1.405       .  A
C1143      N1149   1.346       .  A
C1144      C1145   1.406       .  A
C1144      H1155   1.082       .  S
C1145      C1154   1.378       .  A
C1145      C1146   1.382       .  A
C1146      C1147   1.401       .  A
C1146      N1152   1.343       .  A
C1147      C1148   1.402       .  A
C1147      H1156   1.082       .  S
C1148      C1151   1.373       .  A
N1149      C1150   1.358       .  A
N1149      H1159   1.044       .  S
C1150      C1151   1.400       .  A
C1151      H1157   1.080       .  S
N1152      C1153   1.357       .  A
N1152      H1160   1.044       .  S
C1153      C1154   1.404       .  A
C1154      H1158   1.082       .  S
C1161      C1166   1.383       .  A
C1161      C1162   1.400       .  A
C1161      N1167   1.341       .  A
C1162      C1163   1.400       .  A
C1162      H1173   1.082       .  S
C1163      C1172   1.372       .  A
C1163      C1164   1.382       .  A
C1164      C1165   1.403       .  A
C1164      N1170   1.343       .  A
C1165      C1166   1.403       .  A
C1165      H1174   1.082       .  S
C1166      C1169   1.376       .  A
N1167      C1168   1.355       .  A
N1167      H1177   1.044       .  S
C1168      C1169   1.401       .  A
C1169      H1175   1.080       .  S
N1170      C1171   1.359       .  A
N1170      H1178   1.045       .  S
C1171      C1172   1.401       .  A
C1172      H1176   1.081       .  S
C1179      C1184   1.383       .  A
C1179      C1180   1.403       .  A
C1179      N1185   1.343       .  A
C1180      C1181   1.403       .  A
C1180      H1191   1.082       .  S
C1181      C1190   1.376       .  A
C1181      C1182   1.382       .  A
C1182      C1183   1.401       .  A
C1182      N1188   1.342       .  A
C1183      C1184   1.401       .  A
C1183      H1192   1.082       .  S
C1184      C1187   1.374       .  A
N1185      C1186   1.357       .  A
N1185      H1195   1.044       .  S
C1186      C1187   1.399       .  A
C1187      H1193   1.080       .  S
N1188      C1189   1.357       .  A
N1188      H1196   1.045       .  S
C1189      C1190   1.404       .  A
C1190      H1194   1.081       .  S
C1197      C1202   1.381       .  A
C1197      C1198   1.404       .  A
C1197      N1203   1.343       .  A
C1198      C1199   1.404       .  A
C1198      H1209   1.083       .  S
C1199      C1208   1.376       .  A
C1199      C1200   1.382       .  A
C1200      C1201   1.405       .  A
C1200      N1206   1.346       .  A
C1201      C1202   1.405       .  A
C1201      H1210   1.082       .  S
C1202      C1205   1.378       .  A
N1203      C1204   1.360       .  A
N1203      H1213   1.045       .  S
C1204      C1205   1.404       .  A
C1205      H1211   1.082       .  S
N1206      C1207   1.358       .  A
N1206      H1214   1.044       .  S
C1207      C1208   1.402       .  A
C1208      H1212   1.080       .  S
C1215      C1220   1.382       .  A
C1215      C1216   1.402       .  A
C1215      N1221   1.342       .  A
C1216      C1217   1.402       .  A
C1216      H1227   1.082       .  S
C1217      C1226   1.374       .  A
C1217      C1218   1.382       .  A
C1218      C1219   1.403       .  A
C1218      N1224   1.344       .  A
C1219      C1220   1.403       .  A
C1219      H1228   1.082       .  S
C1220      C1223   1.375       .  A
N1221      C1222   1.359       .  A
N1221      H1231   1.045       .  S
C1222      C1223   1.404       .  A
C1223      H1229   1.081       .  S
N1224      C1225   1.356       .  A
N1224      H1232   1.044       .  S
C1225      C1226   1.401       .  A
C1226      H1230   1.080       .  S
C1233      C1238   1.382       .  A
C1233      C1234   1.407       .  A
C1233      N1239   1.348       .  A
C1234      C1235   1.407       .  A
C1234      H1245   1.082       .  S
C1235      C1244   1.379       .  A
C1235      C1236   1.382       .  A
C1236      C1237   1.403       .  A
C1236      N1242   1.344       .  A
C1237      C1238   1.404       .  A
C1237      H1246   1.082       .  S
C1238      C1241   1.375       .  A
N1239      C1240   1.359       .  A
N1239      H1249   1.044       .  S
C1240      C1241   1.402       .  A
C1241      H1247   1.080       .  S
N1242      C1243   1.358       .  A
N1242      H1250   1.044       .  S
C1243      C1244   1.405       .  A
C1244      H1248   1.081       .  S
C1251      C1256   1.383       .  A
C1251      C1252   1.403       .  A
C1251      N1257   1.342       .  A
C1252      C1253   1.403       .  A
C1252      H1263   1.082       .  S
C1253      C1262   1.376       .  A
C1253      C1254   1.382       .  A
C1254      C1255   1.398       .  A
C1254      N1260   1.338       .  A
C1255      C1256   1.398       .  A
C1255      H1264   1.082       .  S
C1256      C1259   1.371       .  A
N1257      C1258   1.356       .  A
N1257      H1267   1.044       .  S
C1258      C1259   1.397       .  A
C1259      H1265   1.080       .  S
N1260      C1261   1.358       .  A
N1260      H1268   1.045       .  S
C1261      C1262   1.403       .  A
C1262      H1266   1.081       .  S
C1269      C1274   1.383       .  A
C1269      C1270   1.403       .  A
C1269      N1275   1.343       .  A
C1270      C1271   1.402       .  A
C1270      H1281   1.082       .  S
C1271      C1280   1.375       .  A
C1271      C1272   1.382       .  A
C1272      C1273   1.405       .  A
C1272      N1278   1.345       .  A
C1273      C1274   1.404       .  A
C1273      H1282   1.082       .  S
C1274      C1277   1.379       .  A
N1275      C1276   1.359       .  A
N1275      H1285   1.042       .  S
C1276      C1277   1.397       .  A
C1277      H1283   1.082       .  S
N1278      C1279   1.361       .  A
N1278      H1286   1.043       .  S
C1279      C1280   1.400       .  A
C1280      H1284   1.082       .  S
C1287      C1292   1.383       .  A
C1287      C1288   1.400       .  A
C1287      N1293   1.341       .  A
C1288      C1289   1.400       .  A
C1288      H1299   1.082       .  S
C1289      C1298   1.372       .  A
C1289      C1290   1.383       .  A
C1290      C1291   1.402       .  A
C1290      N1296   1.342       .  A
C1291      C1292   1.402       .  A
C1291      H1300   1.082       .  S
C1292      C1295   1.375       .  A
N1293      C1294   1.358       .  A
N1293      H1303   1.045       .  S
C1294      C1295   1.402       .  A
C1295      H1301   1.082       .  S
N1296      C1297   1.356       .  A
N1296      H1304   1.044       .  S
C1297      C1298   1.398       .  A
C1298      H1302   1.080       .  S
