geometry optimzed in LAMMPS
_audit_creation_date              2020-11-30 
_audit_creation_method            'lammps2cif' 
_symmetry_space_group_name_H-M    'P1' 
_symmetry_Int_Tables_number       1 
_symmetry_cell_setting            triclinic 
loop_ 
_symmetry_equiv_pos_as_xyz 
  x,y,z 
_cell_length_a                    53.697758761677015 
_cell_length_b                    53.79470683906286 
_cell_length_c                    30.425951922754393 
_cell_angle_alpha                 90.16492638730894 
_cell_angle_beta                  89.41241111131697 
_cell_angle_gamma                 125.71125380405766 
loop_ 
_atom_site_label 
_atom_site_type_symbol 
_atom_site_fract_x 
_atom_site_fract_y 
_atom_site_fract_z 
_atom_site_charge 
O1          O  0.70171212  0.23253241  0.21547177    -0.74650
O2          O  0.75875041  0.29111623  0.29869930    -0.74680
O3          O  0.75595279  0.28816172  0.20994216    -0.74740
O4          O  0.70463752  0.23565706  0.30436020    -0.74790
O5          O  0.72856525  0.21293110  0.30318116    -0.74720
O6          O  0.78057768  0.26635795  0.20916932    -0.74700
O7          O  0.78309255  0.26899644  0.29846280    -0.74670
O8          O  0.72606995  0.21042989  0.21434629    -0.74740
Ni9        Ni  0.72940167  0.26262618  0.25707867     1.25410
Ni10       Ni  0.75549430  0.23891222  0.25625932     1.25360
C11         C  0.70431197  0.21178026  0.20104835     0.87530
C12         C  0.78008781  0.28948077  0.31308033     0.87460
C13         C  0.77675917  0.28602588  0.19372359     0.87490
C14         C  0.70822986  0.21575612  0.31940322     0.87660
C15         C  0.42004739  0.92638023  0.00133390     0.02900
C16         C  0.41877584  0.91215403  0.46154240    -0.13250
C17         C  0.41420608  0.88360814  0.46172272     0.00400
C18         C  0.41012353  0.86907952  0.00215957    -0.11770
C19         C  0.41313550  0.88370817  0.04178831     0.02900
C20         C  0.41845068  0.91243610  0.04131720    -0.11190
H21         H  0.42233821  0.92376403  0.43062285     0.08490
H22         H  0.40699760  0.84727317  0.00293935     0.06020
H23         H  0.42226616  0.92431207  0.07209635     0.05870
C24         C  0.30319422  0.99013332  0.49084896     0.02900
C25         C  0.28746775  0.97864309  0.03145974    -0.13250
C26         C  0.25538922  0.95748813  0.03333697     0.00400
C27         C  0.23894182  0.94751168  0.49406867    -0.11770
C28         C  0.25405529  0.95824872  0.45350391     0.02900
C29         C  0.28587180  0.98008628  0.45199331    -0.11190
H30         H  0.30021350  0.98490810  0.06164575     0.08490
H31         H  0.21441283  0.92995796  0.49490404     0.06020
H32         H  0.29715661  0.98795538  0.42019121     0.05870
C33         C  0.46721141  0.18397347  0.99726203     0.02900
C34         C  0.46214018  0.19503070  0.45894218    -0.13250
C35         C  0.46858214  0.22425766  0.45752002     0.00400
C36         C  0.47588764  0.24111901  0.99608932    -0.11770
C37         C  0.47686611  0.22890971  0.03587653     0.02900
C38         C  0.47484408  0.20171041  0.03603057    -0.11190
H39         H  0.45229254  0.18092803  0.43014718     0.08490
H40         H  0.47808343  0.26247349  0.99578527     0.06020
H41         H  0.47780007  0.19420335  0.06714577     0.05870
C42         C  0.58629761  0.11612073  0.00757651     0.02900
C43         C  0.60060127  0.12339849  0.04868233    -0.13250
C44         C  0.63268249  0.14098016  0.05164905     0.00400
C45         C  0.65054132  0.15142120  0.51297439    -0.11770
C46         C  0.63671918  0.14493761  0.47174279     0.02900
C47         C  0.60466259  0.12522375  0.46914289    -0.11190
H48         H  0.58697032  0.11724260  0.07851045     0.08490
H49         H  0.67528511  0.16705787  0.51505883     0.06020
H50         H  0.59400767  0.11956468  0.43715616     0.05870
C51         C  0.43240521  0.04103698  0.99470502     0.00340
C52         C  0.45749153  0.07039868  0.00249104     0.00340
O53         O  0.16074553  0.54579419  0.29878652    -0.74650
O54         O  0.19658231  0.52978152  0.20427004    -0.74680
O55         O  0.19984776  0.52994758  0.29315090    -0.74740
O56         O  0.15798273  0.54660424  0.20960552    -0.74790
O57         O  0.19772039  0.59559219  0.20843482    -0.74720
O58         O  0.23916339  0.57924097  0.29199864    -0.74700
O59         O  0.23644217  0.57886495  0.20297058    -0.74670
O60         O  0.19997278  0.59528616  0.29755309    -0.74740
Ni61       Ni  0.17735669  0.53630876  0.25144032     1.25410
Ni62       Ni  0.21973074  0.58900824  0.25013322     1.25360
C63         C  0.17464947  0.57282366  0.31442132     0.87530
C64         C  0.22250791  0.55151620  0.18813347     0.87460
C65         C  0.22635401  0.55203316  0.30680068     0.87490
C66         C  0.17121344  0.57393050  0.19464016     0.87660
O67         O  0.10325660  0.83855393  0.20155043    -0.74650
O68         O  0.15980773  0.89091231  0.29132994    -0.74680
O69         O  0.15930250  0.89331377  0.20192549    -0.74740
O70         O  0.10407469  0.83624324  0.29071752    -0.74790
O71         O  0.12653909  0.81224599  0.28535083    -0.74720
O72         O  0.18200144  0.86954329  0.19845776    -0.74700
O73         O  0.18194525  0.86668484  0.28715532    -0.74670
O74         O  0.12664755  0.81536462  0.19649300    -0.74740
Ni75       Ni  0.13078096  0.86563482  0.24652307     1.25410
Ni76       Ni  0.15502570  0.84010130  0.24173832     1.25360
C77         C  0.10610889  0.81870899  0.18379759     0.87530
C78         C  0.18001464  0.88716552  0.30462401     0.87460
C79         C  0.17962539  0.89062150  0.18515873     0.87490
C80         C  0.10673057  0.81516510  0.30324952     0.87660
C81         C  0.07439121  0.58253140  0.00103758     0.02900
C82         C  0.08788136  0.58588896  0.04221005    -0.13250
C83         C  0.11524915  0.58829353  0.04517347     0.00400
C84         C  0.13046717  0.58963372  0.00669654    -0.11770
C85         C  0.11766394  0.58647621  0.46538374     0.02900
C86         C  0.08920551  0.58203025  0.46283173    -0.11190
H87         H  0.07681650  0.58586798  0.07219548     0.08490
H88         H  0.15169660  0.59162290  0.00904138     0.06020
H89         H  0.07818115  0.57708791  0.43121739     0.05870
C90         C  0.00802375  0.69683591  0.49884661     0.02900
C91         C  0.01791135  0.71108533  0.45725308    -0.13250
C92         C  0.03479414  0.74290978  0.45316768     0.00400
C93         C  0.04289086  0.76092417  0.49080589    -0.11770
C94         C  0.03589378  0.74757747  0.03265718     0.02900
C95         C  0.01613845  0.71551269  0.03638140    -0.11190
H96         H  0.01402754  0.69769795  0.42808732     0.08490
H97         H  0.05765776  0.78564253  0.48758589     0.06020
H98         H  0.00886707  0.70524470  0.06872090     0.05870
C99         C  0.87509156  0.41260886  0.00637271     0.02900
C100        C  0.86502057  0.39761760  0.46548693    -0.13250
C101        C  0.84465660  0.36558562  0.46325149     0.00400
C102        C  0.83443319  0.34838349  0.50219935    -0.11770
C103        C  0.84443728  0.36281478  0.04295900     0.02900
C104        C  0.86580484  0.39469893  0.04490281    -0.11190
H105        H  0.87197557  0.41086295  0.43536311     0.08490
H106        H  0.81744373  0.32379657  0.50091702     0.06020
H107        H  0.87395079  0.40551386  0.07666258     0.05870
C108        C  0.81593488  0.53389117  0.99992800     0.02900
C109        C  0.80195697  0.53333058  0.46057593    -0.13250
C110        C  0.77361688  0.52919631  0.46123031     0.00400
C111        C  0.75984542  0.52692330  0.00175925    -0.11770
C112        C  0.77336770  0.52744109  0.04111755     0.02900
C113        C  0.80078480  0.52985448  0.04014067    -0.11190
H114        H  0.81331378  0.53653084  0.42928415     0.08490
H115        H  0.73924091  0.52618782  0.00281590     0.06020
H116        H  0.81066069  0.52954314  0.07080521     0.05870
C117        C  0.92879123  0.54192027  0.99445195     0.00340
C118        C  0.95826048  0.56789148  0.99714123     0.00340
O119        O  0.47960422  0.30729430  0.29140260    -0.74650
O120        O  0.46501469  0.34760684  0.20215101    -0.74680
O121        O  0.46390953  0.34680732  0.29147923    -0.74740
O122        O  0.48102458  0.30817778  0.20211943    -0.74790
O123        O  0.43154184  0.26925277  0.20139828    -0.74720
O124        O  0.41471980  0.30739529  0.29152960    -0.74700
O125        O  0.41567479  0.30856927  0.20261879    -0.74670
O126        O  0.43036358  0.26805369  0.29008152    -0.74740
Ni127      Ni  0.47418147  0.32890593  0.24679947     1.25410
Ni128      Ni  0.42136866  0.28696560  0.24633860     1.25360
C129        C  0.45728127  0.28100863  0.30575325     0.87530
C130        C  0.43778582  0.33453259  0.18732845     0.87460
C131        C  0.43654681  0.33336024  0.30675954     0.87490
C132        C  0.45900522  0.28227807  0.18686052     0.87660
O133        O  0.68887514  0.58343199  0.20622387    -0.74650
O134        O  0.72932290  0.57056273  0.29673876    -0.74680
O135        O  0.73062024  0.57081774  0.20800257    -0.74740
O136        O  0.68756579  0.58328077  0.29521521    -0.74790
O137        O  0.65002369  0.53352697  0.29593892    -0.74720
O138        O  0.69308772  0.52099138  0.20689273    -0.74700
O139        O  0.69205734  0.52062491  0.29636289    -0.74670
O140        O  0.65115672  0.53356433  0.20655224    -0.74740
Ni141      Ni  0.71038334  0.57873912  0.25161940     1.25410
Ni142      Ni  0.67019829  0.52535349  0.25152888     1.25360
C143        C  0.66362048  0.56046129  0.19072991     0.87530
C144        C  0.71763480  0.54351570  0.31127694     0.87460
C145        C  0.71880637  0.54418230  0.19203384     0.87490
C146        C  0.66176735  0.56068689  0.31029417     0.87660
O147        O  0.41967196  0.76103476  0.20701703    -0.74650
O148        O  0.40833482  0.80359442  0.29708692    -0.74680
O149        O  0.40547706  0.80178888  0.20785327    -0.74740
O150        O  0.42357422  0.76346504  0.29633357    -0.74790
O151        O  0.47308146  0.80173193  0.29069136    -0.74720
O152        O  0.45503702  0.84030197  0.20485863    -0.74700
O153        O  0.45826022  0.84170261  0.29386607    -0.74670
O154        O  0.46927879  0.79964313  0.20212969    -0.74740
Ni155      Ni  0.41246000  0.78105659  0.25225416     1.25410
Ni156      Ni  0.46561536  0.82221009  0.24766722     1.25360
C157        C  0.44624297  0.77329598  0.18959923     0.87530
C158        C  0.43151019  0.82933010  0.31084653     0.87460
C159        C  0.42756919  0.82752710  0.19153701     0.87490
C160        C  0.45148418  0.77656427  0.30842680     0.87660
C161        C  0.31314777  0.52904655  0.00068972     0.02900
C162        C  0.30312332  0.53200282  0.45969365    -0.13250
C163        C  0.27749299  0.53276488  0.45733714     0.00400
C164        C  0.26212812  0.53103651  0.99597294    -0.11770
C165        C  0.27146871  0.52753828  0.03687741     0.02900
C166        C  0.29612508  0.52521686  0.03876174    -0.11190
H167        H  0.31607353  0.53533819  0.42999685     0.08490
H168        H  0.24375104  0.53384858  0.99425748     0.06020
H169        H  0.30315861  0.52224024  0.07040999     0.05870
C170        C  0.47199831  0.68603928  0.99792769     0.02900
C171        C  0.46559352  0.69519652  0.03748725    -0.13250
C172        C  0.46347121  0.72002258  0.03807387     0.00400
C173        C  0.46620449  0.73482571  0.99864700    -0.11770
C174        C  0.47113921  0.72517345  0.45895866     0.02900
C175        C  0.47568671  0.70210578  0.45897150    -0.11190
H176        H  0.46061462  0.68222553  0.06744632     0.08490
H177        H  0.46320628  0.75308340  0.99862899     0.06020
H178        H  0.48033791  0.69561284  0.42789591     0.05870
C179        C  0.41981780  0.42724497  0.99591849     0.02900
C180        C  0.42206990  0.41607942  0.03643325    -0.13250
C181        C  0.42254681  0.39027610  0.03782205     0.00400
C182        C  0.42122965  0.37591191  0.99858576    -0.11770
C183        C  0.41892718  0.38673195  0.45825609     0.02900
C184        C  0.41679981  0.41142943  0.45711396    -0.11190
H185        H  0.42432913  0.42788157  0.06669819     0.08490
H186        H  0.42305213  0.35687885  0.99930606     0.06020
H187        H  0.41449770  0.41929765  0.42570106     0.05870
C188        C  0.57370627  0.58432243  0.00564500     0.02900
C189        C  0.58238013  0.57899745  0.46469796    -0.13250
C190        C  0.60717577  0.57696489  0.46147198     0.00400
C191        C  0.62223432  0.57821090  0.99941746    -0.11770
C192        C  0.61318637  0.58202216  0.04065608     0.02900
C193        C  0.58987244  0.58635004  0.04346552    -0.11190
H194        H  0.56931437  0.57527606  0.43547244     0.08490
H195        H  0.64046576  0.57517506  0.99698164     0.06020
H196        H  0.58326080  0.58952212  0.07558056     0.05870
C197        C  0.43649918  0.56270993  0.99764385     0.00340
C198        C  0.45067939  0.54897804  0.00662772     0.00340
C199        C  0.50494669  0.58532431  0.97865704    -0.09380
C200        C  0.48462775  0.56686689  0.01283370     0.06810
C201        C  0.49609219  0.55972600  0.54831630    -0.03150
C202        C  0.52543558  0.56670358  0.54609438    -0.07600
C203        C  0.54501453  0.58269197  0.01007778     0.05930
C204        C  0.53522096  0.59410940  0.97779156    -0.02620
Br205      Br  0.56191726  0.62220469  0.93241530    -0.02320
H206        H  0.49683749  0.59152843  0.95129336     0.09840
H207        H  0.53207357  0.55795901  0.57194157     0.07860
Br208      Br  0.47223706  0.53904970  0.60013167    -0.02750
C209        C  0.40766041  0.46279114  0.02475883    -0.09380
C210        C  0.42332620  0.45677230  0.99403457     0.06810
C211        C  0.44421018  0.48023451  0.46439578    -0.03150
C212        C  0.44923177  0.50862474  0.46646971    -0.07600
C213        C  0.43580237  0.51562438  0.99954216     0.05930
C214        C  0.41396985  0.49200595  0.02822429    -0.02620
Br215      Br  0.39399777  0.49831636  0.07498332    -0.02320
H216        H  0.39144045  0.44503994  0.04757601     0.09840
H217        H  0.46594238  0.52638763  0.44405384     0.07860
Br218      Br  0.47080965  0.47765712  0.42489382    -0.02750
C219        C  0.47076723  0.61620977  0.02802987    -0.09380
C220        C  0.45392553  0.59668519  0.99275754     0.06810
C221        C  0.44805601  0.60872989  0.45662374    -0.03150
C222        C  0.45479630  0.63787208  0.45875426    -0.07600
C223        C  0.46953695  0.65688924  0.99530982     0.05930
C224        C  0.47941875  0.64640014  0.02892648    -0.02620
Br225      Br  0.50538731  0.67204429  0.07603543    -0.02320
H226        H  0.47594139  0.60754806  0.05593072     0.09840
H227        H  0.44701077  0.64489533  0.43205792     0.07860
Br228      Br  0.42974343  0.58610433  0.40365319    -0.02750
C229        C  0.35076224  0.51877463  0.47396188    -0.09380
C230        C  0.34303863  0.53324371  0.00414251     0.06810
C231        C  0.36524018  0.55363340  0.03498835    -0.03150
C232        C  0.39384626  0.55896641  0.03508768    -0.07600
C233        C  0.40264770  0.54686030  0.00260351     0.05930
C234        C  0.38039228  0.52573338  0.47234935    -0.02620
Br235      Br  0.38900561  0.50758728  0.42578725    -0.02320
H236        H  0.33403624  0.50301816  0.45009839     0.09840
H237        H  0.41055502  0.57521063  0.05858944     0.07860
Br238      Br  0.36103481  0.57962032  0.07298275    -0.02750
C239        C  0.49085799  0.76669542  0.40384116    -0.09380
C240        C  0.46784680  0.73684738  0.41728167     0.06810
C241        C  0.44069916  0.71931700  0.39286033    -0.03150
C242        C  0.43621722  0.73241140  0.35695160    -0.07600
C243        C  0.45872662  0.76284880  0.34406782     0.05930
C244        C  0.48693121  0.77968157  0.36718695    -0.02620
Br245      Br  0.52111990  0.82075104  0.35265721    -0.02320
H246        H  0.51186486  0.78013922  0.42244370     0.09840
H247        H  0.41473673  0.71877516  0.33950870     0.07860
Br248      Br  0.40837637  0.67788563  0.40876456    -0.02750
C249        C  0.42675119  0.74192427  0.12179742    -0.09380
C250        C  0.44990741  0.75718907  0.15341105     0.06810
C251        C  0.47618929  0.75733163  0.14893898    -0.03150
C252        C  0.47959014  0.74378253  0.11212690    -0.07600
C253        C  0.45719689  0.73011248  0.07937455     0.05930
C254        C  0.43025335  0.72857876  0.08495205    -0.02620
Br255      Br  0.39757784  0.70842248  0.04315136    -0.02320
H256        H  0.40621502  0.74117407  0.12503080     0.09840
H257        H  0.50019336  0.74469708  0.10840565     0.07860
Br258      Br  0.50756590  0.77468539  0.19269164    -0.02750
C259        C  0.65325835  0.59338457  0.14911561    -0.09380
C260        C  0.64912472  0.56514106  0.15354593     0.06810
C261        C  0.63252597  0.54256899  0.12097105    -0.03150
C262        C  0.62072947  0.54860523  0.08518862    -0.07600
C263        C  0.62512896  0.57685707  0.08059108     0.05930
C264        C  0.64132242  0.59931292  0.11313155    -0.02620
Br265      Br  0.64927994  0.63891119  0.10857143    -0.02320
H266        H  0.66606456  0.61106268  0.17356707     0.09840
H267        H  0.60834803  0.53118946  0.06023460     0.07860
Br268      Br  0.62709733  0.50394664  0.12080151    -0.02750
C269        C  0.61866999  0.54041398  0.36457767    -0.09380
C270        C  0.64577868  0.56587834  0.34556619     0.06810
C271        C  0.65757255  0.59544816  0.36248779    -0.03150
C272        C  0.64349377  0.59851051  0.39888832    -0.07600
C273        C  0.61756065  0.57293498  0.41880285     0.05930
C274        C  0.60461155  0.54378387  0.40084804    -0.02620
Br275      Br  0.56874020  0.50790186  0.42642796    -0.02320
H276        H  0.60879615  0.51759148  0.35219236     0.09840
H277        H  0.65344162  0.62101420  0.41270974     0.07860
Br278      Br  0.69305569  0.63308306  0.33937888    -0.02750
C279        C  0.45617450  0.37314676  0.36469680    -0.09380
C280        C  0.43071247  0.34781459  0.34342821     0.06810
C281        C  0.40086670  0.33653114  0.35927735    -0.03150
C282        C  0.39736197  0.35007834  0.39598402    -0.07600
C283        C  0.42294380  0.37467442  0.41740832     0.05930
C284        C  0.45249610  0.38637209  0.40138397    -0.02620
Br285      Br  0.48864258  0.41964806  0.42975440    -0.02320
H286        H  0.47926687  0.38233821  0.35363956     0.09840
H287        H  0.37457247  0.34101445  0.40841081     0.07860
Br288      Br  0.36365467  0.30289195  0.33335903    -0.02750
C289        C  0.45506183  0.38025345  0.14081170    -0.09380
C290        C  0.43203380  0.34944267  0.15164366     0.06810
C291        C  0.40475211  0.33341857  0.12658636    -0.03150
C292        C  0.40171949  0.34789537  0.09117933    -0.07600
C293        C  0.42516596  0.37812795  0.07964245     0.05930
C294        C  0.45186259  0.39457725  0.10517176    -0.02620
Br295      Br  0.48562097  0.43569152  0.09054641    -0.02320
H296        H  0.47609749  0.39314627  0.15939104     0.09840
H297        H  0.38121241  0.33507119  0.07140397     0.07860
Br298      Br  0.37116914  0.29120530  0.13575193    -0.02750
C299        C  0.77777186  0.55585979  0.39195600    -0.09380
C300        C  0.75991394  0.53061343  0.42008544     0.06810
C301        C  0.72892634  0.50823383  0.40970646    -0.03150
C302        C  0.71589456  0.51247760  0.37351016    -0.07600
C303        C  0.73328621  0.53868503  0.34668485     0.05930
C304        C  0.76493673  0.55995953  0.35538450    -0.02620
Br305      Br  0.79248566  0.59462043  0.31835053    -0.02320
H306        H  0.80175374  0.57295604  0.39906625     0.09840
H307        H  0.69182129  0.49542416  0.36695091     0.07860
Br308      Br  0.70360736  0.47102405  0.44303439    -0.02750
C309        C  0.76947167  0.56041233  0.09208180    -0.09380
C310        C  0.76162325  0.53125307  0.08257133     0.06810
C311        C  0.74076757  0.50649003  0.11001179    -0.03150
C312        C  0.72753087  0.51116861  0.14614134    -0.07600
C313        C  0.73477211  0.54040656  0.15530386     0.05930
C314        C  0.75628388  0.56527083  0.12768120    -0.02620
Br315      Br  0.76721082  0.60614331  0.13314606    -0.02320
H316        H  0.78522842  0.57942568  0.07050811     0.09840
H317        H  0.71119705  0.49178333  0.16669469     0.07860
Br318      Br  0.72901473  0.46596538  0.09818766    -0.02750
C319        C  0.85011876  0.52190924  0.46635089    -0.09380
C320        C  0.84588339  0.53799291  0.99830503     0.06810
C321        C  0.87034991  0.55762674  0.02706529    -0.03150
C322        C  0.89725614  0.55906815  0.02519364    -0.07600
C323        C  0.90144531  0.54295419  0.99305063     0.05930
C324        C  0.87753510  0.52468499  0.46286503    -0.02620
Br325      Br  0.88081882  0.50353532  0.41480742    -0.02320
H326        H  0.83187422  0.50687663  0.44372769     0.09840
H327        H  0.91485878  0.57269448  0.04930689     0.07860
Br328      Br  0.86976974  0.58480218  0.06744184    -0.02750
C329        C  0.91597435  0.46464405  0.47631718    -0.09380
C330        C  0.89298776  0.44668682  0.00827794     0.06810
C331        C  0.88523291  0.46152599  0.03797274    -0.03150
C332        C  0.89971207  0.49291193  0.03459426    -0.07600
C333        C  0.92082037  0.51043805  0.00075316     0.05930
C334        C  0.92931764  0.49602168  0.47156527    -0.02620
Br335      Br  0.95490202  0.51614304  0.42070895    -0.02320
H336        H  0.92231128  0.45387581  0.45310407     0.09840
H337        H  0.89282671  0.50354893  0.05716851     0.07860
Br338      Br  0.85212694  0.44093376  0.08003906    -0.02750
C339        C  0.98506225  0.61795983  0.03456874    -0.09380
C340        C  0.96592166  0.59943609  0.00008764     0.06810
C341        C  0.95945653  0.61289440  0.46662625    -0.03150
C342        C  0.97110355  0.64389614  0.46933880    -0.07600
C343        C  0.99192276  0.66296133  0.50238485     0.05930
C344        C  0.99928697  0.64947776  0.03489383    -0.02620
Br345      Br  0.03222779  0.67224650  0.07603832    -0.02320
H346        H  0.99118644  0.60817716  0.05960380     0.09840
H347        H  0.96538205  0.65357267  0.44359592     0.07860
Br348      Br  0.93929961  0.59197387  0.41325064    -0.02750
C349        C  0.02121233  0.55903608  0.03065777    -0.09380
C350        C  0.04391460  0.57740611  0.99857401     0.06810
C351        C  0.03722991  0.59136025  0.46603488    -0.03150
C352        C  0.00827516  0.58541036  0.46467741    -0.07600
C353        C  0.98590487  0.56757717  0.99700225     0.05930
C354        C  0.99309923  0.55528660  0.03134725    -0.02620
Br355      Br  0.96812415  0.53751270  0.08326193    -0.02320
H356        H  0.02574759  0.54848385  0.05659456     0.09840
H357        H  0.00375829  0.59644980  0.43944487     0.07860
Br358      Br  0.06730367  0.62241160  0.42640865    -0.02750
C359        C  0.10226976  0.80284149  0.10711961    -0.09380
C360        C  0.08710623  0.80075617  0.14601581     0.06810
C361        C  0.05484418  0.78121767  0.14794285    -0.03150
C362        C  0.03825059  0.76431748  0.11066199    -0.07600
C363        C  0.05350368  0.76668953  0.07127559     0.05930
C364        C  0.08601038  0.78602428  0.07013065    -0.02620
Br365      Br  0.11029423  0.78890511  0.02082438    -0.02320
H366        H  0.12711642  0.81747181  0.10567731     0.09840
H367        H  0.01346180  0.74909257  0.11254888     0.07860
Br368      Br  0.03288718  0.77524758  0.20158019    -0.02750
C369        C  0.08004947  0.76509476  0.40513172    -0.09380
C370        C  0.05075129  0.75802407  0.41164307     0.06810
C371        C  0.03913183  0.76837183  0.38130116    -0.03150
C372        C  0.05737434  0.78644309  0.34548665    -0.07600
C373        C  0.08724441  0.79439338  0.33958671     0.05930
C374        C  0.09845934  0.78333042  0.36990237    -0.02620
Br375      Br  0.13969619  0.79472573  0.36853468    -0.02320
H376        H  0.08917351  0.75742471  0.42881952     0.09840
H377        H  0.04833708  0.79459840  0.32251133     0.07860
Br378      Br  0.99892000  0.75886362  0.38829765    -0.02750
C379        C  0.21580637  0.52015959  0.12302714    -0.09380
C380        C  0.23578313  0.54462833  0.15121869     0.06810
C381        C  0.26768314  0.56163673  0.14328458    -0.03150
C382        C  0.27872151  0.55495760  0.10667557    -0.07600
C383        C  0.25868669  0.53127100  0.07768793     0.05930
C384        C  0.22696150  0.51339444  0.08661432    -0.02620
Br385      Br  0.19801595  0.47905844  0.05082430    -0.02320
H386        H  0.19127610  0.50645132  0.12886298     0.09840
H387        H  0.30313655  0.56890012  0.10026440     0.07860
Br388      Br  0.29760112  0.59334461  0.18179163    -0.02750
C389        C  0.26276598  0.57164736  0.36899074    -0.09380
C390        C  0.24195252  0.54684663  0.34185591     0.06810
C391        C  0.23566299  0.51784836  0.35064900    -0.03150
C392        C  0.24868763  0.51392089  0.38730888    -0.07600
C393        C  0.26810872  0.53845629  0.41535603     0.05930
C394        C  0.27569627  0.56762489  0.40543595    -0.02620
Br395      Br  0.30288420  0.60241544  0.44176081    -0.02320
H396        H  0.26820650  0.59415200  0.36291683     0.09840
H397        H  0.24295883  0.49144233  0.39467778     0.07860
Br398      Br  0.21014348  0.48285507  0.31380762    -0.02750
C399        C  0.15563614  0.59975997  0.35280099    -0.09380
C400        C  0.16137557  0.57747733  0.35331953     0.06810
C401        C  0.15352221  0.55902861  0.39095189    -0.03150
C402        C  0.13900799  0.56216643  0.42653998    -0.07600
C403        C  0.13247656  0.58390426  0.42592912     0.05930
C404        C  0.14135547  0.60316154  0.38879252    -0.02620
Br405      Br  0.13650694  0.63566358  0.38637187    -0.02320
H406        H  0.16206508  0.61437769  0.32422240     0.09840
H407        H  0.13291816  0.54759573  0.45508822     0.07860
Br408      Br  0.16394403  0.53057301  0.39667349    -0.02750
C409        C  0.12540928  0.55672252  0.14909072    -0.09380
C410        C  0.15592590  0.58014412  0.16009872     0.06810
C411        C  0.17138099  0.60793421  0.13568247    -0.03150
C412        C  0.15691049  0.61077003  0.10003729    -0.07600
C413        C  0.12713710  0.58671870  0.08796722     0.05930
C414        C  0.11106755  0.55975676  0.11347949    -0.02620
Br415      Br  0.07062041  0.52512722  0.09853090    -0.02320
H416        H  0.11285127  0.53534608  0.16722217     0.09840
H417        H  0.16944868  0.63152803  0.08042494     0.07860
Br418      Br  0.21278503  0.64263478  0.14626499    -0.02870
C419        C  0.53178051  0.07953220  0.03435023    -0.09380
C420        C  0.55305034  0.10296930  0.00512300     0.06810
C421        C  0.54260378  0.11548808  0.47658206    -0.03150
C422        C  0.51157495  0.10299210  0.47509324    -0.07600
C423        C  0.48995487  0.07984503  0.00438489     0.05930
C424        C  0.50080500  0.06881523  0.03543720    -0.02620
Br425      Br  0.47606389  0.04216643  0.08314516    -0.02320
H426        H  0.53952053  0.07032974  0.05774917     0.09840
H427        H  0.50476731  0.11249496  0.45103332     0.07860
Br428      Br  0.56909525  0.15256569  0.44301370    -0.02750
C429        C  0.49728350  0.25989647  0.10486174    -0.09380
C430        C  0.47264179  0.24075279  0.07689452     0.06810
C431        C  0.44365381  0.23400682  0.08684940    -0.03150
C432        C  0.43985448  0.24729595  0.12319819    -0.07600
C433        C  0.46456643  0.26747282  0.15063352     0.05930
C434        C  0.49348141  0.27321305  0.14174787    -0.02620
Br435      Br  0.52825748  0.29785013  0.17918595    -0.02320
H436        H  0.51953926  0.26480285  0.09766055     0.09840
H437        H  0.41744105  0.24228047  0.12932428     0.07860
Br438      Br  0.40838894  0.20689718  0.05128563    -0.02750
C439        C  0.49234776  0.26282499  0.39773563    -0.09380
C440        C  0.46592724  0.23679595  0.41632188     0.06810
C441        C  0.43738072  0.22432509  0.39681980    -0.03150
C442        C  0.43546528  0.23857355  0.36009874    -0.07600
C443        C  0.46170021  0.26543986  0.34196748     0.05930
C444        C  0.49063879  0.27709589  0.36068029    -0.02620
Br445      Br  0.52889456  0.31208953  0.33824279    -0.02320
H446        H  0.51444938  0.27228502  0.41251733     0.09840
H447        H  0.41299379  0.22891098  0.34658996     0.07860
Br448      Br  0.40004673  0.18916776  0.42089887    -0.02750
C449        C  0.45688177  0.10980504  0.46099207    -0.09380
C450        C  0.45460370  0.09635187  0.00148744     0.06810
C451        C  0.45508249  0.11085788  0.04023654    -0.03150
C452        C  0.45648481  0.13757991  0.03782738    -0.07600
C453        C  0.46243618  0.15336271  0.99759405     0.05930
C454        C  0.46424984  0.13935720  0.45891476    -0.02620
Br455      Br  0.48332834  0.16027503  0.40424961    -0.02320
H456        H  0.45730177  0.09908805  0.43102333     0.09840
H457        H  0.45397505  0.14619371  0.06834356     0.07860
Br458      Br  0.45472354  0.09565147  0.09741912    -0.02750
C459        C  0.23876892  0.91900257  0.39701179    -0.09380
C460        C  0.23722896  0.94245017  0.41310255     0.06810
C461        C  0.21807519  0.94857720  0.39260739    -0.03150
C462        C  0.20025566  0.93081611  0.35682889    -0.07600
C463        C  0.20093946  0.90652293  0.34101500     0.05930
C464        C  0.22091087  0.90097153  0.36156375    -0.02620
Br465      Br  0.22465176  0.86868177  0.34543369    -0.02320
H466        H  0.25339561  0.91411515  0.41309559     0.09840
H467        H  0.18548352  0.93586591  0.34178549     0.07860
Br468      Br  0.21553755  0.98083548  0.41278535    -0.02750
C469        C  0.21247370  0.94306709  0.08456754    -0.09380
C470        C  0.23871294  0.94396113  0.07563120     0.06810
C471        C  0.24645742  0.92925943  0.10498247    -0.03150
C472        C  0.22769645  0.91358793  0.14152631    -0.07600
C473        C  0.20059070  0.91137580  0.14941886     0.05930
C474        C  0.19331227  0.92683440  0.12065800    -0.02620
Br475      Br  0.15635999  0.92459977  0.12557105    -0.02320
H476        H  0.20616227  0.95413032  0.06220315     0.09840
H477        H  0.23381282  0.90194506  0.16299668     0.07860
Br478      Br  0.28012526  0.92644916  0.09481751    -0.02750
C479        C  0.35076529  0.00122355  0.45499439    -0.09380
C480        C  0.33739996  0.00816205  0.48835973     0.06810
C481        C  0.35686194  0.03016020  0.02010003    -0.03150
C482        C  0.38783025  0.04138305  0.02111816    -0.07600
C483        C  0.40092272  0.03356549  0.98861768     0.05930
C484        C  0.38213095  0.01439986  0.45404893    -0.02620
Br485      Br  0.39736611  0.00453044  0.40477881    -0.02320
H486        H  0.33671404  0.98456420  0.42996909     0.09840
H487        H  0.40129855  0.05545576  0.04845031     0.07860
Br488      Br  0.34351712  0.04722506  0.06159313    -0.02750
C489        C  0.44830149  0.86632089  0.13193559    -0.09380
C490        C  0.42240440  0.84275596  0.15558978     0.06810
C491        C  0.39304445  0.83425289  0.14293212    -0.03150
C492        C  0.39029610  0.84844690  0.10648734    -0.07600
C493        C  0.41630469  0.87126374  0.08269851     0.05930
C494        C  0.44543697  0.88040016  0.09596132    -0.02620
Br495      Br  0.48199570  0.91106749  0.06437460    -0.02320
H496        H  0.47109742  0.87345235  0.14054024     0.09840
H497        H  0.36777964  0.84138444  0.09628973     0.07860
Br498      Br  0.35585261  0.80408452  0.17372745    -0.02750
C499        C  0.43818078  0.86165932  0.42371966    -0.09380
C500        C  0.41851755  0.87083710  0.42126685     0.06810
C501        C  0.40337513  0.86673873  0.38125250    -0.03150
C502        C  0.40802433  0.85345930  0.34515268    -0.07600
C503        C  0.42759478  0.84422267  0.34825911     0.05930
C504        C  0.44235717  0.84808537  0.38815283    -0.02620
Br505      Br  0.46625134  0.83267468  0.39739679    -0.02320
H506        H  0.45013028  0.86461276  0.45394805     0.09840
H507        H  0.39612508  0.85007093  0.31470678     0.07860
Br508      Br  0.37473673  0.87683353  0.37465338    -0.02750
C509        C  0.44663405  0.97990201  0.47268399    -0.09380
C510        C  0.42466669  0.95647739  0.00122383     0.06810
C511        C  0.40674940  0.96188610  0.02814636    -0.03150
C512        C  0.41154728  0.99026635  0.02698489    -0.07600
C513        C  0.43292910  0.01356703  0.99790291     0.05930
C514        C  0.45040545  0.00794171  0.46992404    -0.02620
Br515      Br  0.47647490  0.03519531  0.42344815    -0.02320
H516        H  0.46033745  0.97606006  0.45134363     0.09840
H517        H  0.39740005  0.99376319  0.04791931     0.07860
Br518      Br  0.37285151  0.93068562  0.06360123    -0.02750
C519        C  0.78693821  0.32352213  0.13589867    -0.09380
C520        C  0.79583948  0.30637780  0.15618003     0.06810
C521        C  0.82193367  0.30885650  0.13909936    -0.03150
C522        C  0.83814497  0.32809279  0.10298968    -0.07600
C523        C  0.82882700  0.34481341  0.08314141     0.05930
C524        C  0.80284403  0.34218173  0.09958145    -0.02620
Br525      Br  0.78684639  0.36200272  0.07169746    -0.02320
H526        H  0.76688757  0.32187557  0.14746882     0.09840
H527        H  0.85782132  0.32962420  0.08983042     0.07860
Br528      Br  0.83699178  0.28686308  0.16237550    -0.02750
C529        C  0.80008781  0.33658478  0.35697568    -0.09380
C530        C  0.80059792  0.31118334  0.34791796     0.06810
C531        C  0.81860697  0.30610345  0.37485109    -0.03150
C532        C  0.83415361  0.32528718  0.41067298    -0.07600
C533        C  0.83216366  0.34952093  0.42087928     0.05930
C534        C  0.81536948  0.35548094  0.39311011    -0.02620
Br535      Br  0.80953920  0.38684130  0.40527966    -0.02320
H536        H  0.78664202  0.34116841  0.33688982     0.09840
H537        H  0.84698665  0.32050901  0.43189646     0.07860
Br538      Br  0.82147431  0.27234076  0.36773963    -0.02750
C539        C  0.69011205  0.21184009  0.39548315    -0.09380
C540        C  0.68953598  0.19690471  0.35738351     0.06810
C541        C  0.67104504  0.16467696  0.35639718    -0.03150
C542        C  0.65405495  0.14789882  0.39389155    -0.07600
C543        C  0.65532546  0.16290972  0.43261713     0.05930
C544        C  0.67321242  0.19528142  0.43280428    -0.02620
Br545      Br  0.67401877  0.21842765  0.48176678    -0.02320
H546        H  0.70382956  0.23662117  0.39619813     0.09840
H547        H  0.63975757  0.12312810  0.39279131     0.07860
Br548      Br  0.66672044  0.14285067  0.30371470    -0.02750
C549        C  0.63888062  0.16958054  0.11950515    -0.09380
C550        C  0.64786389  0.15414363  0.09430281     0.06810
C551        C  0.67316385  0.15467904  0.10784886    -0.03150
C552        C  0.69043364  0.17254294  0.14382278    -0.07600
C553        C  0.68280030  0.18988576  0.16726569     0.05930
C554        C  0.65571602  0.18701953  0.15589389    -0.02620
Br555      Br  0.63979817  0.20591987  0.18779594    -0.02320
H556        H  0.61928794  0.16915837  0.10978029     0.09840
H557        H  0.71049186  0.17352941  0.15253441     0.07860
Br558      Br  0.68496948  0.13132425  0.07855255    -0.02750
O559        O  0.70169507  0.23253551  0.71541008    -0.74650
O560        O  0.75870717  0.29114275  0.79864718    -0.74680
O561        O  0.75594391  0.28815875  0.70988754    -0.74740
O562        O  0.70458398  0.23569258  0.80430248    -0.74790
O563        O  0.72850144  0.21295552  0.80320774    -0.74720
O564        O  0.78056044  0.26634620  0.70919578    -0.74700
O565        O  0.78303697  0.26901090  0.79848964    -0.74670
O566        O  0.72604574  0.21042538  0.71437106    -0.74740
Ni567      Ni  0.72937115  0.26264205  0.75701874     1.25410
Ni568      Ni  0.75545345  0.23891741  0.75628858     1.25360
C569        C  0.70429762  0.21177650  0.70102658     0.87530
C570        C  0.78003352  0.28950336  0.81307029     0.87460
C571        C  0.77675318  0.28601302  0.69370985     0.87490
C572        C  0.70816589  0.21579453  0.81938945     0.87660
C573        C  0.42004331  0.92636361  0.50132237     0.02900
C574        C  0.41879472  0.91218202  0.96154910    -0.13250
C575        C  0.41424040  0.88364292  0.96172151     0.00400
C576        C  0.41008603  0.86904786  0.50216497    -0.11770
C577        C  0.41311334  0.88368743  0.54178931     0.02900
C578        C  0.41844443  0.91242249  0.54130959    -0.11190
H579        H  0.42235332  0.92379421  0.93063287     0.08490
H580        H  0.40694933  0.84723644  0.50295088     0.06020
H581        H  0.42227316  0.92430688  0.57208444     0.05870
C582        C  0.30311287  0.99010354  0.99085796     0.02900
C583        C  0.28755190  0.97867539  0.53145541    -0.13250
C584        C  0.25547143  0.95752679  0.53333844     0.00400
C585        C  0.23886198  0.94747295  0.99406469    -0.11770
C586        C  0.25397990  0.95821562  0.95350243     0.02900
C587        C  0.28579584  0.98005698  0.95199891    -0.11190
H588        H  0.30030004  0.98493944  0.56163893     0.08490
H589        H  0.21433393  0.92991533  0.99489615     0.06020
H590        H  0.29708515  0.98792863  0.92019989     0.05870
C591        C  0.46729081  0.18399221  0.49726186     0.02900
C592        C  0.46206838  0.19501945  0.95894452    -0.13250
C593        C  0.46854752  0.22426189  0.95751419     0.00400
C594        C  0.47589120  0.24110208  0.49610189    -0.11770
C595        C  0.47687513  0.22889614  0.53588924     0.02900
C596        C  0.47488806  0.20171471  0.53603970    -0.11190
H597        H  0.45219748  0.18091171  0.93015898     0.08490
H598        H  0.47806252  0.26244408  0.49580023     0.06020
H599        H  0.47784552  0.19420984  0.56715581     0.05870
C600        C  0.58636167  0.11602478  0.50751498     0.02900
C601        C  0.60065232  0.12331948  0.54863295    -0.13250
C602        C  0.63273214  0.14090238  0.55162439     0.00400
C603        C  0.65047883  0.15151521  0.01298698    -0.11770
C604        C  0.63664403  0.14504834  0.97176721     0.02900
C605        C  0.60458613  0.12533893  0.96918903    -0.11190
H606        H  0.58701287  0.11718118  0.57844901     0.08490
H607        H  0.67522391  0.16714189  0.01505676     0.06020
H608        H  0.59391953  0.11969041  0.93721134     0.05870
C609        C  0.43248655  0.04106191  0.49463700     0.00340
C610        C  0.45758847  0.07041589  0.50242019     0.00340
O611        O  0.16074147  0.54578073  0.79875072    -0.74650
O612        O  0.19659451  0.52978675  0.70423434    -0.74680
O613        O  0.19984582  0.52993768  0.79311595    -0.74740
O614        O  0.15798999  0.54660506  0.70957030    -0.74790
O615        O  0.19772585  0.59559393  0.70841585    -0.74720
O616        O  0.23915998  0.57923194  0.79198221    -0.74700
O617        O  0.23645251  0.57887094  0.70295308    -0.74670
O618        O  0.19996720  0.59527340  0.79753415    -0.74740
Ni619      Ni  0.17736020  0.53630442  0.75140354     1.25410
Ni620      Ni  0.21973244  0.58900475  0.75011529     1.25360
C621        C  0.17464294  0.57280748  0.81439504     0.87530
C622        C  0.22252297  0.55152455  0.68810872     0.87460
C623        C  0.22634856  0.55202213  0.80677763     0.87490
C624        C  0.17121960  0.57393385  0.69461624     0.87660
O625        O  0.10326053  0.83854815  0.70147304    -0.74650
O626        O  0.15980391  0.89091323  0.79124920    -0.74680
O627        O  0.15931052  0.89331013  0.70184494    -0.74740
O628        O  0.10407409  0.83624574  0.79064200    -0.74790
O629        O  0.12653908  0.81224818  0.78528937    -0.74720
O630        O  0.18201011  0.86954001  0.69839728    -0.74700
O631        O  0.18194185  0.86668559  0.78709646    -0.74670
O632        O  0.12665216  0.81535905  0.69642845    -0.74740
Ni633      Ni  0.13078264  0.86563311  0.74644214     1.25410
Ni634      Ni  0.15502795  0.84009957  0.74167600     1.25360
C635        C  0.10611093  0.81869937  0.68373103     0.87530
C636        C  0.18000727  0.88716581  0.80455757     0.87460
C637        C  0.17964017  0.89062147  0.68509459     0.87490
C638        C  0.10673438  0.81517291  0.80318810     0.87660
C639        C  0.07437997  0.58253675  0.50104409     0.02900
C640        C  0.08787160  0.58589991  0.54221757    -0.13250
C641        C  0.11524521  0.58831550  0.54518262     0.00400
C642        C  0.13046741  0.58966272  0.50670653    -0.11770
C643        C  0.11766550  0.58645421  0.96537435     0.02900
C644        C  0.08921237  0.58201953  0.96282415    -0.11190
H645        H  0.07680283  0.58587313  0.57220242     0.08490
H646        H  0.15170084  0.59165972  0.50905276     0.06020
H647        H  0.07818899  0.57708294  0.93120987     0.05870
C648        C  0.00807864  0.69688338  0.99884641     0.02900
C649        C  0.01796961  0.71113728  0.95725592    -0.13250
C650        C  0.03485524  0.74296254  0.95317735     0.00400
C651        C  0.04295137  0.76097310  0.99082028    -0.11770
C652        C  0.03584250  0.74753366  0.53264495     0.02900
C653        C  0.01608788  0.71546938  0.53637785    -0.11190
H654        H  0.01408567  0.69775251  0.92808703     0.08490
H655        H  0.05771833  0.78569173  0.98760580     0.06020
H656        H  0.00882204  0.70520551  0.56872030     0.05870
C657        C  0.87514693  0.41257853  0.50638015     0.02900
C658        C  0.86495051  0.39764825  0.96548108    -0.13250
C659        C  0.84457503  0.36561703  0.96324944     0.00400
C660        C  0.83435095  0.34841642  0.00219888    -0.11770
C661        C  0.84450615  0.36278155  0.54296174     0.02900
C662        C  0.86586227  0.39466760  0.54490926    -0.11190
H663        H  0.87190860  0.41089363  0.93535683     0.08490
H664        H  0.81735745  0.32383013  0.00091932     0.06020
H665        H  0.87399636  0.40548233  0.57667124     0.05870
C666        C  0.81592285  0.53389225  0.49993459     0.02900
C667        C  0.80195918  0.53331757  0.96057330    -0.13250
C668        C  0.77360977  0.52916348  0.96123374     0.00400
C669        C  0.75985456  0.52696712  0.50175310    -0.11770
C670        C  0.77336644  0.52747174  0.54111484     0.02900
C671        C  0.80077227  0.52986360  0.54014395    -0.11190
H672        H  0.81331681  0.53652671  0.92927929     0.08490
H673        H  0.73925688  0.52624392  0.50280453     0.06020
H674        H  0.81063959  0.52954134  0.57081065     0.05870
C675        C  0.92875851  0.54187564  0.49446384     0.00340
C676        C  0.95822619  0.56785094  0.49714684     0.00340
O677        O  0.47959361  0.30729894  0.79138117    -0.74650
O678        O  0.46500984  0.34761350  0.70212571    -0.74680
O679        O  0.46390372  0.34681481  0.79145530    -0.74740
O680        O  0.48101591  0.30818008  0.70209795    -0.74790
O681        O  0.43153234  0.26925792  0.70137297    -0.74720
O682        O  0.41471338  0.30740469  0.79150442    -0.74700
O683        O  0.41566910  0.30857829  0.70259345    -0.74670
O684        O  0.43035211  0.26806038  0.79005550    -0.74740
Ni685      Ni  0.47417408  0.32891132  0.74677573     1.25410
Ni686      Ni  0.42136043  0.28697346  0.74631253     1.25360
C687        C  0.45726836  0.28101438  0.80573139     0.87530
C688        C  0.43778102  0.33454109  0.68730396     0.87460
C689        C  0.43654155  0.33336782  0.80673813     0.87490
C690        C  0.45899649  0.28227962  0.68684041     0.87660
O691        O  0.68887764  0.58343425  0.70626379    -0.74650
O692        O  0.72930988  0.57054778  0.79677967    -0.74680
O693        O  0.73062089  0.57081924  0.70804362    -0.74740
O694        O  0.68755279  0.58326628  0.79525488    -0.74790
O695        O  0.65001034  0.53351249  0.79595804    -0.74720
O696        O  0.69308824  0.52099283  0.70691482    -0.74700
O697        O  0.69204489  0.52060997  0.79638532    -0.74670
O698        O  0.65115900  0.53356644  0.70657131    -0.74740
Ni699      Ni  0.71037761  0.57873263  0.75166122     1.25410
Ni700      Ni  0.67019249  0.52534693  0.75154958     1.25360
C701        C  0.66362697  0.56046618  0.69075689     0.87530
C702        C  0.71762117  0.54349820  0.81130655     0.87460
C703        C  0.71880733  0.54418688  0.69206278     0.87490
C704        C  0.66175054  0.56067010  0.81032048     0.87660
O705        O  0.41966460  0.76103114  0.70703251    -0.74650
O706        O  0.40834512  0.80360715  0.79710009    -0.74680
O707        O  0.40547459  0.80178922  0.70786755    -0.74740
O708        O  0.42357715  0.76347128  0.79634750    -0.74790
O709        O  0.47308506  0.80173432  0.79069357    -0.74720
O710        O  0.45503525  0.84029897  0.70485703    -0.74700
O711        O  0.45827118  0.84171147  0.79386316    -0.74670
O712        O  0.46927192  0.79963612  0.70213302    -0.74740
Ni713      Ni  0.41246083  0.78106071  0.75226908     1.25410
Ni714      Ni  0.46561684  0.82221025  0.74766709     1.25360
C715        C  0.44623370  0.77328829  0.68960969     0.87530
C716        C  0.43152403  0.82934425  0.81085056     0.87460
C717        C  0.42756566  0.82752442  0.69154308     0.87490
C718        C  0.45148803  0.77656831  0.80843364     0.87660
C719        C  0.31319946  0.52908799  0.50067828     0.02900
C720        C  0.30307455  0.53196374  0.95970415    -0.13250
C721        C  0.27744845  0.53273272  0.95734524     0.00400
C722        C  0.26217194  0.53106502  0.49596562    -0.11770
C723        C  0.27151563  0.52756967  0.53686901     0.02900
C724        C  0.29617669  0.52525557  0.53875188    -0.11190
H725        H  0.31602511  0.53529731  0.93000854     0.08490
H726        H  0.24379060  0.53387090  0.49425155     0.06020
H727        H  0.30321205  0.52228035  0.57039947     0.05870
C728        C  0.47201761  0.68605718  0.49792867     0.02900
C729        C  0.46560085  0.69520295  0.53748917    -0.13250
C730        C  0.46346120  0.72001802  0.53807964     0.00400
C731        C  0.46618693  0.73481958  0.49865458    -0.11770
C732        C  0.47114430  0.72516854  0.95895189     0.02900
C733        C  0.47567284  0.70208746  0.95896737    -0.11190
H734        H  0.46062702  0.68223164  0.56744633     0.08490
H735        H  0.46317663  0.75306903  0.49863892     0.06020
H736        H  0.48031260  0.69558387  0.92789208     0.05870
C737        C  0.41982282  0.42726054  0.49589809     0.02900
C738        C  0.42207027  0.41609349  0.53641433    -0.13250
C739        C  0.42253968  0.39028610  0.53780619     0.00400
C740        C  0.42121825  0.37591814  0.49857229    -0.11770
C741        C  0.41893340  0.38672399  0.95827104     0.02900
C742        C  0.41679759  0.41141614  0.95713314    -0.11190
H743        H  0.42433313  0.42789834  0.56667805     0.08490
H744        H  0.42303588  0.35688197  0.49929532     0.06020
H745        H  0.41448984  0.41928179  0.92572182     0.05870
C746        C  0.57375276  0.58435139  0.50564579     0.02900
C747        C  0.58233255  0.57896656  0.96469717    -0.13250
C748        C  0.60712829  0.57693391  0.96147116     0.00400
C749        C  0.62228164  0.57824139  0.49941842    -0.11770
C750        C  0.61323201  0.58205051  0.54065752     0.02900
C751        C  0.58991735  0.58637729  0.54346662    -0.11190
H752        H  0.56926636  0.57524417  0.93547183     0.08490
H753        H  0.64051295  0.57520538  0.49698251     0.06020
H754        H  0.58330285  0.58954601  0.57558169     0.05870
C755        C  0.43655015  0.56274512  0.49763435     0.00340
C756        C  0.45072560  0.54900877  0.50661955     0.00340
C757        C  0.50499526  0.58535515  0.47865702    -0.09380
C758        C  0.48467331  0.56689284  0.51282829     0.06810
C759        C  0.49605018  0.55970701  0.04832492    -0.03150
C760        C  0.52539310  0.56668338  0.04610052    -0.07600
C761        C  0.54506039  0.58271903  0.51007771     0.05930
C762        C  0.53526963  0.59414080  0.47779471    -0.02620
Br763      Br  0.56197031  0.62224240  0.43242697    -0.02320
H764        H  0.49688880  0.59156338  0.45129485     0.09840
H765        H  0.53203297  0.55794294  0.07195121     0.07860
Br766      Br  0.47220000  0.53904226  0.10014846    -0.02750
C767        C  0.40767998  0.46281724  0.52473631    -0.09380
C768        C  0.42334168  0.45679270  0.49401324     0.06810
C769        C  0.44418576  0.48021445  0.96441076    -0.03150
C770        C  0.44919392  0.50859875  0.96647819    -0.07600
C771        C  0.43584279  0.51565446  0.49953223     0.05930
C772        C  0.41400182  0.49203674  0.52820780    -0.02620
Br773      Br  0.39403622  0.49835352  0.57496940    -0.02320
H774        H  0.39145408  0.44506649  0.54754935     0.09840
H775        H  0.46589801  0.52636195  0.94405707     0.07860
Br776      Br  0.47079237  0.47764809  0.92490873    -0.02750
C777        C  0.47081350  0.61624282  0.52802612    -0.09380
C778        C  0.45398071  0.59672024  0.49274795     0.06810
C779        C  0.44799412  0.60869408  0.95663919    -0.03150
C780        C  0.45474434  0.63784054  0.95876751    -0.07600
C781        C  0.46957430  0.65691666  0.49530528     0.05930
C782        C  0.47945643  0.64643011  0.52892557    -0.02620
Br783      Br  0.50541304  0.67207333  0.57604401    -0.02320
H784        H  0.47598484  0.60758076  0.55592983     0.09840
H785        H  0.44695733  0.64486575  0.93207575     0.07860
Br786      Br  0.42966222  0.58606424  0.90367763    -0.02750
C787        C  0.35070996  0.51873092  0.97397812    -0.09380
C788        C  0.34309122  0.53328683  0.50412790     0.06810
C789        C  0.36529279  0.55367574  0.53497409    -0.03150
C790        C  0.39389851  0.55900781  0.53507307    -0.07600
C791        C  0.40269914  0.54690047  0.50258934     0.05930
C792        C  0.38034065  0.52569111  0.97236549    -0.02620
Br793      Br  0.38895565  0.50754621  0.92580374    -0.02320
H794        H  0.33398412  0.50297385  0.95011492     0.09840
H795        H  0.41060691  0.57525050  0.55857636     0.07860
Br796      Br  0.36108627  0.57966065  0.57297192    -0.02750
C797        C  0.49086685  0.76668930  0.90383034    -0.09380
C798        C  0.46785266  0.73684299  0.91727467     0.06810
C799        C  0.44070073  0.71931736  0.89286153    -0.03150
C800        C  0.43621853  0.73241453  0.85695714    -0.07600
C801        C  0.45873104  0.76285040  0.84407007     0.05930
C802        C  0.48693906  0.77967827  0.86718055    -0.02620
Br803      Br  0.52113142  0.82074418  0.85264344    -0.02320
H804        H  0.51187661  0.78012986  0.92242718     0.09840
H805        H  0.41473499  0.71878177  0.83952085     0.07860
Br806      Br  0.40837124  0.67788999  0.90877356    -0.02750
C807        C  0.42673516  0.74190622  0.62181590    -0.09380
C808        C  0.44989462  0.75717671  0.65342424     0.06810
C809        C  0.47617915  0.75732412  0.64894652    -0.03150
C810        C  0.47958013  0.74377635  0.61213298    -0.07600
C811        C  0.45718446  0.73010243  0.57938428     0.05930
C812        C  0.43023750  0.72856174  0.58496880    -0.02620
Br813      Br  0.39755804  0.70839764  0.54317502    -0.02320
H814        H  0.40619684  0.74115179  0.62505369     0.09840
H815        H  0.50018592  0.74469599  0.60840693     0.07860
Br816      Br  0.50756086  0.77468437  0.69269211    -0.02750
C817        C  0.65327241  0.59339418  0.64914154    -0.09380
C818        C  0.64914253  0.56515223  0.65356457     0.06810
C819        C  0.63256198  0.54258926  0.62097276    -0.03150
C820        C  0.62077653  0.54863167  0.58518266    -0.07600
C821        C  0.62517045  0.57688145  0.58059365     0.05930
C822        C  0.64134826  0.59932916  0.61314937    -0.02620
Br823      Br  0.64930097  0.63892589  0.60860133    -0.02320
H824        H  0.66606648  0.61106589  0.67360535     0.09840
H825        H  0.60840700  0.53122196  0.56021752     0.07860
Br826      Br  0.62714560  0.50397280  0.62079230    -0.02750
C827        C  0.61864511  0.54038881  0.86459289    -0.09380
C828        C  0.64575235  0.56585642  0.84558361     0.06810
C829        C  0.65753434  0.59542549  0.86249651    -0.03150
C830        C  0.64344673  0.59848461  0.89888836    -0.07600
C831        C  0.61751608  0.57290633  0.91880269     0.05930
C832        C  0.60457781  0.54375539  0.90085471    -0.02620
Br833      Br  0.56870963  0.50786993  0.92643359    -0.02320
H834        H  0.60877972  0.51756665  0.85221332     0.09840
H835        H  0.65338667  0.62098817  0.91270470     0.07860
Br836      Br  0.69301191  0.63306381  0.83938563    -0.02750
C837        C  0.45617285  0.37315360  0.86467941    -0.09380
C838        C  0.43070956  0.34781869  0.84341629     0.06810
C839        C  0.40086530  0.33652687  0.85928341    -0.03150
C840        C  0.39736363  0.35006884  0.89600019    -0.07600
C841        C  0.42294687  0.37466765  0.91741844     0.05930
C842        C  0.45249746  0.38637347  0.90137722    -0.02620
Br843      Br  0.48864596  0.41965404  0.92973755    -0.02320
H844        H  0.47926428  0.38235153  0.85360927     0.09840
H845        H  0.37457537  0.34099905  0.90843898     0.07860
Br846      Br  0.36365092  0.30288176  0.83337854    -0.02750
C847        C  0.45505905  0.38026206  0.64078729    -0.09380
C848        C  0.43202913  0.34945244  0.65162191     0.06810
C849        C  0.40474450  0.33343059  0.62657096    -0.03150
C850        C  0.40171080  0.34790837  0.59116702    -0.07600
C851        C  0.42515918  0.37813932  0.57962673     0.05930
C852        C  0.45185886  0.39458664  0.60514977    -0.02620
Br853      Br  0.48561989  0.43569843  0.59051796    -0.02320
H854        H  0.47609681  0.39315305  0.65936208     0.09840
H855        H  0.38120160  0.33508585  0.57139571     0.07860
Br856      Br  0.37115830  0.29121888  0.63574001    -0.02750
C857        C  0.77775948  0.55583408  0.89197240    -0.09380
C858        C  0.75990406  0.53058248  0.92009367     0.06810
C859        C  0.72891722  0.50820149  0.90971229    -0.03150
C860        C  0.71588334  0.51244957  0.87352291    -0.07600
C861        C  0.73327278  0.53866233  0.84670708     0.05930
C862        C  0.76492302  0.55993753  0.85540734    -0.02620
Br863      Br  0.79247099  0.59460490  0.81838275    -0.02320
H864        H  0.80174074  0.57293186  0.89908425     0.09840
H865        H  0.69181060  0.49539530  0.86696144     0.07860
Br866      Br  0.70360298  0.47098456  0.94302645    -0.02750
C867        C  0.76944728  0.56043194  0.59207384    -0.09380
C868        C  0.76161857  0.53127907  0.58256962     0.06810
C869        C  0.74078436  0.50651612  0.61002606    -0.03150
C870        C  0.72754900  0.51118786  0.64616497    -0.07600
C871        C  0.73477221  0.54041906  0.65532331     0.05930
C872        C  0.75626209  0.56528356  0.62768469    -0.02620
Br873      Br  0.76715865  0.60614480  0.63314574    -0.02320
H874        H  0.78518799  0.57944525  0.57048961     0.09840
H875        H  0.71123079  0.49180256  0.66673002     0.07860
Br876      Br  0.72905579  0.46599911  0.59820977    -0.02750
C877        C  0.85015188  0.52194205  0.96632696    -0.09380
C878        C  0.84586116  0.53797257  0.49832084     0.06810
C879        C  0.87032887  0.55759864  0.52708352    -0.03150
C880        C  0.89722670  0.55902477  0.52521761    -0.07600
C881        C  0.90140836  0.54290400  0.49307686     0.05930
C882        C  0.87757571  0.52473376  0.96283487    -0.02620
Br883      Br  0.88087261  0.50359923  0.91476781    -0.02320
H884        H  0.83190941  0.50690499  0.94370378     0.09840
H885        H  0.91483088  0.57264846  0.54933003     0.07860
Br886      Br  0.86976390  0.58478666  0.56745250    -0.02750
C887        C  0.91595243  0.46466389  0.97631525    -0.09380
C888        C  0.89301788  0.44665526  0.50828474     0.06810
C889        C  0.88524279  0.46147921  0.53797729    -0.03150
C890        C  0.89969592  0.49286082  0.53459334    -0.07600
C891        C  0.92079883  0.51039680  0.50075227     0.05930
C892        C  0.92932333  0.49604785  0.97156879    -0.02620
Br893      Br  0.95492538  0.51616068  0.92072456    -0.02320
H894        H  0.92227452  0.45388276  0.95310221     0.09840
H895        H  0.89279760  0.50348601  0.55716829     0.07860
Br896      Br  0.85214452  0.44087026  0.58005380    -0.02750
C897        C  0.98502094  0.61791869  0.53457422    -0.09380
C898        C  0.96588032  0.59939252  0.50009484     0.06810
C899        C  0.95950538  0.61294267  0.96661631    -0.03150
C900        C  0.97115784  0.64394595  0.96932912    -0.07600
C901        C  0.99197515  0.66300791  0.00237893     0.05930
C902        C  0.99924052  0.64943555  0.53489837    -0.02620
Br903      Br  0.03218339  0.67220925  0.57603842    -0.02320
H904        H  0.99114977  0.60813929  0.55960780     0.09840
H905        H  0.96544118  0.65362569  0.94358462     0.07860
Br906      Br  0.93935229  0.59202639  0.91323675    -0.02750
C907        C  0.02119668  0.55902290  0.53066181    -0.09380
C908        C  0.04389707  0.57739809  0.49857846     0.06810
C909        C  0.03725575  0.59137625  0.96603230    -0.03150
C910        C  0.00830600  0.58543774  0.96467558    -0.07600
C911        C  0.98587599  0.56754525  0.49700444     0.05930
C912        C  0.99307765  0.55526142  0.53134997    -0.02620
Br913      Br  0.96810357  0.53748146  0.58326431    -0.02320
H914        H  0.02573780  0.54847608  0.55659959     0.09840
H915        H  0.00379501  0.59648218  0.93944346     0.07860
Br916      Br  0.06733554  0.62242385  0.92640784    -0.02750
C917        C  0.10224692  0.80280447  0.60706175    -0.09380
C918        C  0.08709701  0.80073313  0.64596512     0.06810
C919        C  0.05483507  0.78119884  0.64791382    -0.03150
C920        C  0.03822773  0.76429039  0.61064628    -0.07600
C921        C  0.05346682  0.76665036  0.57125161     0.05930
C922        C  0.08597362  0.78597942  0.57008523    -0.02620
Br923      Br  0.11023871  0.78884426  0.52076351    -0.02320
H924        H  0.12709323  0.81743143  0.60560301     0.09840
H925        H  0.01343923  0.74906960  0.61254940     0.07860
Br926      Br  0.03289602  0.77524657  0.70156329    -0.02750
C927        C  0.08012056  0.76518556  0.90514955    -0.09380
C928        C  0.05080743  0.75807926  0.91164997     0.06810
C929        C  0.03915766  0.76837961  0.88127897    -0.03150
C930        C  0.05738392  0.78643833  0.84544433    -0.07600
C931        C  0.08726561  0.79441897  0.83955032     0.05930
C932        C  0.09851236  0.78340609  0.86989800    -0.02620
Br933      Br  0.13976778  0.79485197  0.86853649    -0.02320
H934        H  0.08926724  0.75755078  0.92885666     0.09840
H935        H  0.04832416  0.79455788  0.82244631     0.07860
Br936      Br  0.99892571  0.75882330  0.88826154    -0.02750
C937        C  0.21583874  0.52016990  0.62300885    -0.09380
C938        C  0.23580781  0.54464273  0.65119954     0.06810
C939        C  0.26770942  0.56165961  0.64327082    -0.03150
C940        C  0.27875605  0.55498477  0.60666697    -0.07600
C941        C  0.25872797  0.53129488  0.57767920     0.05930
C942        C  0.22700210  0.51340938  0.58660153    -0.02620
Br943      Br  0.19806678  0.47906764  0.55081206    -0.02320
H944        H  0.19130782  0.50645459  0.62884065     0.09840
H945        H  0.30317183  0.56893344  0.60025895     0.07860
Br946      Br  0.29761936  0.59337488  0.68177692    -0.02750
C947        C  0.26273718  0.57162674  0.86899531    -0.09380
C948        C  0.24193839  0.54683166  0.84184191     0.06810
C949        C  0.23565148  0.51783374  0.85062785    -0.03150
C950        C  0.24866478  0.51390063  0.88729723    -0.07600
C951        C  0.26807091  0.53842995  0.91536208     0.05930
C952        C  0.27565560  0.56759864  0.90545049    -0.02620
Br953      Br  0.30282573  0.60238234  0.94179705    -0.02320
H954        H  0.26817489  0.59413088  0.86292747     0.09840
H955        H  0.24293902  0.49142233  0.89465860     0.07860
Br956      Br  0.21015126  0.48284920  0.81376313    -0.02750
C957        C  0.15563866  0.59974629  0.85279133    -0.09380
C958        C  0.16136612  0.57745487  0.85329593     0.06810
C959        C  0.15350465  0.55899696  0.89092009    -0.03150
C960        C  0.13899433  0.56213523  0.92651361    -0.07600
C961        C  0.13247495  0.58388217  0.92591600     0.05930
C962        C  0.14136215  0.60314814  0.88878802    -0.02620
Br963      Br  0.13653279  0.63566351  0.88638755    -0.02320
H964        H  0.16207507  0.61437182  0.82422023     0.09840
H965        H  0.13289865  0.54755824  0.95505585     0.07860
Br966      Br  0.16391234  0.53052940  0.89662534    -0.02750
C967        C  0.12541231  0.55673197  0.64907841    -0.09380
C968        C  0.15592958  0.58015239  0.66008535     0.06810
C969        C  0.17138106  0.60794715  0.63568116    -0.03150
C970        C  0.15690680  0.61078856  0.60004651    -0.07600
C971        C  0.12713313  0.58673798  0.58797514     0.05930
C972        C  0.11106690  0.55977147  0.61347770    -0.02620
Br973      Br  0.07061999  0.52514212  0.59852734    -0.02320
H974        H  0.11285655  0.53535226  0.66720181     0.09840
H975        H  0.16944293  0.63154988  0.58044127     0.07860
Br976      Br  0.21278517  0.64264670  0.64626555    -0.02870
C977        C  0.53183929  0.07947445  0.53428009    -0.09380
C978        C  0.55311852  0.10288820  0.50503287     0.06810
C979        C  0.54251947  0.11556752  0.97670293    -0.03150
C980        C  0.51148395  0.10303755  0.97519933    -0.07600
C981        C  0.49004000  0.07982836  0.50430598     0.05930
C982        C  0.50087348  0.06878841  0.53536946    -0.02620
Br983      Br  0.47612466  0.04216502  0.58309343    -0.02320
H984        H  0.53956641  0.07026861  0.55769561     0.09840
H985        H  0.50466700  0.11253922  0.95115262     0.07860
Br986      Br  0.56899467  0.15268406  0.94320688    -0.02750
C987        C  0.49728046  0.25988188  0.60487742    -0.09380
C988        C  0.47264180  0.24073361  0.57690776     0.06810
C989        C  0.44365276  0.23398876  0.58685180    -0.03150
C990        C  0.43985017  0.24728466  0.62318959    -0.07600
C991        C  0.46455991  0.26746768  0.65062461     0.05930
C992        C  0.49347513  0.27320495  0.64175226    -0.02620
Br993      Br  0.52824827  0.29784808  0.67919326    -0.02320
H994        H  0.51953743  0.26478888  0.59768468     0.09840
H995        H  0.41743617  0.24226982  0.62930674     0.07860
Br996      Br  0.40839132  0.20687242  0.55128630    -0.02750
C997        C  0.49232165  0.26282445  0.89772407    -0.09380
C998        C  0.46589660  0.23680324  0.91631672     0.06810
C999        C  0.43735073  0.22434098  0.89681777    -0.03150
C1000       C  0.43544153  0.23858842  0.86009088    -0.07600
C1001       C  0.46168141  0.26544606  0.84195173     0.05930
C1002       C  0.49061826  0.27709520  0.86066391    -0.02620
Br1003     Br  0.52887835  0.31207827  0.83821805    -0.02320
H1004       H  0.51442253  0.27227798  0.91250364     0.09840
H1005       H  0.41297082  0.22893255  0.84658434     0.07860
Br1006     Br  0.40000891  0.18919965  0.92090876    -0.02750
C1007       C  0.45673104  0.10974410  0.96103578    -0.09380
C1008       C  0.45473034  0.09638918  0.50143287     0.06810
C1009       C  0.45520203  0.11088276  0.54019290    -0.03150
C1010       C  0.45660209  0.13760474  0.53780402    -0.07600
C1011       C  0.46255417  0.15339896  0.49758183     0.05930
C1012       C  0.46410422  0.13929734  0.95893348    -0.02620
Br1013     Br  0.48315456  0.16018054  0.90423828    -0.02320
H1014       H  0.45714467  0.09901447  0.93107682     0.09840
H1015       H  0.45408353  0.14620599  0.56832638     0.07860
Br1016     Br  0.45482886  0.09565625  0.59736542    -0.02750
C1017       C  0.23874732  0.91900946  0.89696449    -0.09380
C1018       C  0.23716327  0.94242168  0.91309378     0.06810
C1019       C  0.21798848  0.94852704  0.89261490    -0.03150
C1020       C  0.20019083  0.93077803  0.85681523    -0.07600
C1021       C  0.20091773  0.90651838  0.84096278     0.05930
C1022       C  0.22091173  0.90099069  0.86149369    -0.02620
Br1023     Br  0.22472130  0.86875521  0.84529951    -0.02320
H1024       H  0.25339348  0.91414125  0.91303235     0.09840
H1025       H  0.18540081  0.93580994  0.84178672     0.07860
Br1026     Br  0.21539586  0.98074216  0.91283829    -0.02750
C1027       C  0.21255113  0.94311509  0.58455304    -0.09380
C1028       C  0.23878927  0.94400366  0.57563190     0.06810
C1029       C  0.24651446  0.92928556  0.60498295    -0.03150
C1030       C  0.22773227  0.91359793  0.64150447    -0.07600
C1031       C  0.20062495  0.91138754  0.64937570     0.05930
C1032       C  0.19336940  0.92686766  0.62062051    -0.02620
Br1033     Br  0.15642231  0.92464428  0.62550716    -0.02320
H1034       H  0.20625424  0.95419138  0.56218946     0.09840
H1035       H  0.23383398  0.90194199  0.66297350     0.07860
Br1036     Br  0.28018463  0.92647576  0.59484400    -0.02750
C1037       C  0.35068697  0.00118719  0.95502969    -0.09380
C1038       C  0.33731698  0.00813000  0.98838113     0.06810
C1039       C  0.35695292  0.03019673  0.52006985    -0.03150
C1040       C  0.38792498  0.04142799  0.52106477    -0.07600
C1041       C  0.40101105  0.03360980  0.48855428     0.05930
C1042       C  0.38205129  0.01435757  0.95410483    -0.02620
Br1043     Br  0.39729625  0.00448617  0.90484986    -0.02320
H1044       H  0.33664008  0.98452974  0.92999982     0.09840
H1045       H  0.40139962  0.05550321  0.54839084     0.07860
Br1046     Br  0.34361394  0.04725534  0.56158423    -0.02750
C1047       C  0.44829078  0.86631317  0.63193556    -0.09380
C1048       C  0.42239650  0.84274937  0.65559527     0.06810
C1049       C  0.39303447  0.83424245  0.64294118    -0.03150
C1050       C  0.39028147  0.84843163  0.60649450    -0.07600
C1051       C  0.41628732  0.87124766  0.58270058     0.05930
C1052       C  0.44542162  0.88038772  0.59595942    -0.02620
Br1053     Br  0.48197683  0.91105199  0.56436321    -0.02320
H1054       H  0.47108801  0.87344711  0.64053705     0.09840
H1055       H  0.36776352  0.84136622  0.59629967     0.07860
Br1056     Br  0.35584542  0.80407466  0.67374288    -0.02750
C1057       C  0.43822832  0.86171097  0.92370688    -0.09380
C1058       C  0.41855533  0.87087736  0.92126175     0.06810
C1059       C  0.40339805  0.86676249  0.88125636    -0.03150
C1060       C  0.40803912  0.85347443  0.84515954    -0.07600
C1061       C  0.42761692  0.84424614  0.84825950     0.05930
C1062       C  0.44239772  0.84812933  0.88814298    -0.02620
Br1063     Br  0.46630706  0.83273457  0.89737977    -0.02320
H1064       H  0.45018856  0.86467666  0.95392898     0.09840
H1065       H  0.39612759  0.85007255  0.81472132     0.07860
Br1066     Br  0.37475001  0.87684567  0.87466780    -0.02750
C1067       C  0.44661419  0.97992360  0.97272453    -0.09380
C1068       C  0.42468527  0.95647113  0.50120020     0.06810
C1069       C  0.40678709  0.96190437  0.52812369    -0.03150
C1070       C  0.41160356  0.99029279  0.52694398    -0.07600
C1071       C  0.43298624  0.01357799  0.49784445     0.05930
C1072       C  0.45036717  0.00795532  0.96998244    -0.02620
Br1073     Br  0.47643809  0.03523275  0.92352720    -0.02320
H1074       H  0.46033115  0.97610000  0.95138385     0.09840
H1075       H  0.39747137  0.99380911  0.54788024     0.07860
Br1076     Br  0.37289170  0.93072855  0.56360706    -0.02750
C1077       C  0.78695483  0.32348976  0.63583925    -0.09380
C1078       C  0.79584976  0.30635379  0.65616693     0.06810
C1079       C  0.82195425  0.30883262  0.63913364    -0.03150
C1080       C  0.83818501  0.32806553  0.60302806    -0.07600
C1081       C  0.82887466  0.34478053  0.58313672     0.05930
C1082       C  0.80287838  0.34214385  0.59952571    -0.02620
Br1083     Br  0.78688632  0.36194972  0.57157511    -0.02320
H1084       H  0.76689570  0.32184117  0.64737012     0.09840
H1085       H  0.85787050  0.32959873  0.58990636     0.07860
Br1086     Br  0.83699994  0.28684330  0.66247170    -0.02750
C1087       C  0.80001338  0.33660521  0.85696682    -0.09380
C1088       C  0.80053230  0.31120811  0.84791507     0.06810
C1089       C  0.81854341  0.30613524  0.87485714    -0.03150
C1090       C  0.83408272  0.32532052  0.91067955    -0.07600
C1091       C  0.83208527  0.34955002  0.92087833     0.05930
C1092       C  0.81529051  0.35550458  0.89310145    -0.02620
Br1093     Br  0.80945938  0.38686540  0.90525872    -0.02320
H1094       H  0.78656633  0.34118388  0.83687473     0.09840
H1095       H  0.84691766  0.32054774  0.93190845     0.07860
Br1096     Br  0.82142896  0.27238315  0.86775649    -0.02750
C1097       C  0.69009860  0.21192130  0.89548932    -0.09380
C1098       C  0.68946188  0.19696475  0.85737599     0.06810
C1099       C  0.67090358  0.16473723  0.85638123    -0.03150
C1100       C  0.65391230  0.14797683  0.89388462    -0.07600
C1101       C  0.65524464  0.16300541  0.93262704     0.05930
C1102       C  0.67319480  0.19538063  0.93281922    -0.02620
Br1103     Br  0.67408544  0.21856159  0.98179834    -0.02320
H1104       H  0.70386663  0.23670460  0.89620749     0.09840
H1105       H  0.63956761  0.12320581  0.89277914     0.07860
Br1106     Br  0.66649559  0.14289475  0.80367762    -0.02750
C1107       C  0.63891093  0.16955303  0.61941334    -0.09380
C1108       C  0.64789772  0.15409310  0.59427825     0.06810
C1109       C  0.67318678  0.15462969  0.60788647    -0.03150
C1110       C  0.69044004  0.17251061  0.64385896    -0.07600
C1111       C  0.68280249  0.18987249  0.66723741     0.05930
C1112       C  0.65573118  0.18701182  0.65579843    -0.02620
Br1113     Br  0.63981207  0.20594689  0.68759919    -0.02320
H1114       H  0.61932750  0.16913212  0.60963715     0.09840
H1115       H  0.71048913  0.17349403  0.65262050     0.07860
Br1116     Br  0.68499947  0.13125431  0.57867685    -0.02750
loop_ 
_geom_bond_atom_site_label_1 
_geom_bond_atom_site_label_2 
_geom_bond_distance 
_geom_bond_site_symmetry_2 
_ccdc_geom_bond_type 
O1           Ni9   1.911       .  S
O1           C11   1.279       .  A
O2           Ni9   1.910       .  S
O2           C12   1.281       .  A
O3           Ni9   1.913       .  S
O3           C13   1.282       .  A
O4           Ni9   1.914       .  S
O4           C14   1.280       .  A
O5          Ni10   1.922       .  S
O5           C14   1.281       .  A
O6          Ni10   1.923       .  S
O6           C13   1.281       .  A
O7          Ni10   1.921       .  S
O7           C12   1.281       .  A
O8          Ni10   1.917       .  S
O8           C11   1.282       .  A
Ni9         Ni10   2.383       .  S
C11         C553   1.486       .  S
C12         C530   1.488       .  S
C13         C520   1.492       .  S
C14         C540   1.472       .  S
C15         C510   1.488       .  S
C15          C20   1.406       .  A
C15         C574   1.411   1_554  A
C16          C17   1.407       .  A
C16         C573   1.410       .  A
C16          H21   1.083       .  S
C17         C500   1.489       .  S
C17         C576   1.405       .  A
C18          C19   1.396       .  A
C18         C575   1.405   1_554  A
C18          H22   1.084       .  S
C19         C493   1.473       .  S
C19          C20   1.398       .  A
C20          H23   1.084       .  S
C24         C480   1.496   1_565  S
C24          C29   1.410       .  A
C24         C583   1.411       .  A
C25          C26   1.405       .  A
C25         C582   1.411   1_554  A
C25          H30   1.080       .  S
C26         C470   1.486       .  S
C26         C585   1.402   1_554  A
C27          C28   1.397       .  A
C27         C584   1.402       .  A
C27          H31   1.084       .  S
C28         C460   1.473       .  S
C28          C29   1.399       .  A
C29          H32   1.083       .  S
C33         C453   1.511       .  S
C33          C38   1.420   1_556  A
C33         C592   1.411       .  A
C34          C35   1.400       .  A
C34         C591   1.411       .  A
C34          H39   1.077       .  S
C35         C440   1.472       .  S
C35         C594   1.393       .  A
C36          C37   1.395   1_556  A
C36         C593   1.393       .  A
C36          H40   1.084       .  S
C37         C430   1.474       .  S
C37          C38   1.403       .  A
C38          H41   1.079       .  S
C42         C420   1.490       .  S
C42          C43   1.405       .  A
C42         C605   1.409   1_554  A
C43          C44   1.404       .  A
C43          H48   1.084       .  S
C44         C550   1.481       .  S
C44         C603   1.402       .  A
C45          C46   1.400       .  A
C45         C602   1.402       .  A
C45          H49   1.083       .  S
C46         C543   1.485       .  S
C46          C47   1.402       .  A
C47         C600   1.409       .  A
C47          H50   1.083       .  S
C51          C52   1.373   1_556  D
C51         C483   1.506       .  S
C51         C513   1.498       .  S
C52         C423   1.506       .  S
C52         C450   1.492       .  S
O53         Ni61   1.906       .  S
O53          C63   1.278       .  A
O54         Ni61   1.908       .  S
O54          C64   1.279       .  A
O55         Ni61   1.924       .  S
O55          C65   1.283       .  A
O56         Ni61   1.927       .  S
O56          C66   1.285       .  A
O57         Ni62   1.912       .  S
O57          C66   1.278       .  A
O58         Ni62   1.913       .  S
O58          C65   1.281       .  A
O59         Ni62   1.924       .  S
O59          C64   1.283       .  A
O60         Ni62   1.925       .  S
O60          C63   1.282       .  A
Ni61        Ni62   2.384       .  S
C63         C400   1.470       .  S
C64         C380   1.482       .  S
C65         C390   1.487       .  S
C66         C410   1.493       .  S
O67         Ni75   1.922       .  S
O67          C77   1.281       .  A
O68         Ni75   1.922       .  S
O68          C78   1.283       .  A
O69         Ni75   1.926       .  S
O69          C79   1.283       .  A
O70         Ni75   1.921       .  S
O70          C80   1.282       .  A
O71         Ni76   1.908       .  S
O71          C80   1.279       .  A
O72         Ni76   1.907       .  S
O72          C79   1.280       .  A
O73         Ni76   1.913       .  S
O73          C78   1.279       .  A
O74         Ni76   1.911       .  S
O74          C77   1.280       .  A
Ni75        Ni76   2.384       .  S
C77         C360   1.471       .  S
C78         C463   1.492       .  S
C79         C473   1.487       .  S
C80         C373   1.478       .  S
C81         C350   1.495   1_554  S
C81          C82   1.411       .  A
C81         C644   1.412   1_554  A
C82          C83   1.402       .  A
C82          H87   1.083       .  S
C83         C413   1.480       .  S
C83          C84   1.398       .  A
C84         C643   1.401   1_554  A
C84          H88   1.084       .  S
C85         C403   1.484       .  S
C85          C86   1.405       .  A
C85         C642   1.401       .  A
C86         C639   1.412       .  A
C86          H89   1.083       .  S
C90         C343   1.497   1_455  S
C90          C91   1.410       .  A
C90         C653   1.412       .  A
C91          C92   1.398       .  A
C91          H96   1.084       .  S
C92         C370   1.470       .  S
C92          C93   1.397       .  A
C93         C652   1.400       .  A
C93          H97   1.084       .  S
C94         C363   1.488       .  S
C94          C95   1.406       .  A
C94         C651   1.400   1_554  A
C95         C648   1.412   1_554  A
C95          H98   1.081       .  S
C99         C330   1.494       .  S
C99         C104   1.409       .  A
C99         C658   1.410   1_554  A
C100        C101   1.404       .  A
C100        C657   1.410       .  A
C100        H105   1.083       .  S
C101        C533   1.481       .  S
C101        C102   1.401       .  A
C102        C661   1.396       .  A
C102        H106   1.084       .  S
C103        C523   1.474       .  S
C103        C104   1.402       .  A
C103        C660   1.396       .  A
C104        H107   1.083       .  S
C108        C320   1.490       .  S
C108        C113   1.407   1_556  A
C108        C667   1.410       .  A
C109        C110   1.404       .  A
C109        C666   1.410       .  A
C109        H114   1.084       .  S
C110        C300   1.483       .  S
C110        C669   1.400       .  A
C111        C112   1.399       .  A
C111        C668   1.400   1_554  A
C111        H115   1.084       .  S
C112        C310   1.471       .  S
C112        C113   1.400       .  A
C113        H116   1.083       .  S
C117        C118   1.373       .  D
C117        C323   1.503       .  S
C117        C333   1.497   1_556  S
C118        C340   1.497   1_556  S
C118        C353   1.494       .  S
O119       Ni127   1.921       .  S
O119        C129   1.281       .  A
O120       Ni127   1.923       .  S
O120        C130   1.283       .  A
O121       Ni127   1.918       .  S
O121        C131   1.283       .  A
O122       Ni127   1.920       .  S
O122        C132   1.280       .  A
O123       Ni128   1.913       .  S
O123        C132   1.282       .  A
O124       Ni128   1.914       .  S
O124        C131   1.279       .  A
O125       Ni128   1.909       .  S
O125        C130   1.278       .  A
O126       Ni128   1.906       .  S
O126        C129   1.280       .  A
Ni127      Ni128   2.380       .  S
C129        C443   1.488       .  S
C130        C290   1.490       .  S
C131        C280   1.490       .  S
C132        C433   1.485       .  S
O133       Ni141   1.918       .  S
O133        C143   1.281       .  A
O134       Ni141   1.915       .  S
O134        C144   1.280       .  A
O135       Ni141   1.906       .  S
O135        C145   1.278       .  A
O136       Ni141   1.906       .  S
O136        C146   1.277       .  A
O137       Ni142   1.928       .  S
O137        C146   1.284       .  A
O138       Ni142   1.926       .  S
O138        C145   1.283       .  A
O139       Ni142   1.920       .  S
O139        C144   1.282       .  A
O140       Ni142   1.916       .  S
O140        C143   1.281       .  A
Ni141      Ni142   2.381       .  S
C143        C260   1.482       .  S
C144        C303   1.486       .  S
C145        C313   1.486       .  S
C146        C270   1.492       .  S
O147       Ni155   1.916       .  S
O147        C157   1.280       .  A
O148       Ni155   1.918       .  S
O148        C158   1.279       .  A
O149       Ni155   1.928       .  S
O149        C159   1.283       .  A
O150       Ni155   1.932       .  S
O150        C160   1.286       .  A
O151       Ni156   1.903       .  S
O151        C160   1.276       .  A
O152       Ni156   1.906       .  S
O152        C159   1.280       .  A
O153       Ni156   1.922       .  S
O153        C158   1.282       .  A
O154       Ni156   1.922       .  S
O154        C157   1.282       .  A
Ni155      Ni156   2.384       .  S
C157        C250   1.480       .  S
C158        C503   1.473       .  S
C159        C490   1.490       .  S
C160        C243   1.490       .  S
C161        C230   1.489       .  S
C161        C166   1.407       .  A
C161        C720   1.409   1_554  A
C162        C163   1.403       .  A
C162        C719   1.409       .  A
C162        H167   1.084       .  S
C163        C393   1.475       .  S
C163        C722   1.400       .  A
C164        C165   1.400   1_556  A
C164        C721   1.400       .  A
C164        H168   1.084       .  S
C165        C383   1.482       .  S
C165        C166   1.402       .  A
C166        H169   1.084       .  S
C170        C223   1.497       .  S
C170        C171   1.413   1_556  A
C170        C733   1.411       .  A
C171        C172   1.405       .  A
C171        H176   1.082       .  S
C172        C253   1.479       .  S
C172        C173   1.400   1_554  A
C173        C732   1.396       .  A
C173        H177   1.084       .  S
C174        C240   1.474       .  S
C174        C175   1.398       .  A
C174        C731   1.396       .  A
C175        C728   1.411       .  A
C175        H178   1.083       .  S
C179        C210   1.488       .  S
C179        C180   1.410   1_556  A
C179        C742   1.407       .  A
C180        C181   1.404       .  A
C180        H185   1.084       .  S
C181        C293   1.477       .  S
C181        C182   1.400   1_554  A
C182        C741   1.396       .  A
C182        H186   1.084       .  S
C183        C283   1.471       .  S
C183        C184   1.399       .  A
C183        C740   1.396       .  A
C184        C737   1.407       .  A
C184        H187   1.083       .  S
C188        C203   1.496       .  S
C188        C193   1.414       .  A
C188        C747   1.411   1_554  A
C189        C190   1.401       .  A
C189        C746   1.411       .  A
C189        H194   1.082       .  S
C190        C273   1.472       .  S
C190        C749   1.396       .  A
C191        C192   1.398   1_556  A
C191        C748   1.396       .  A
C191        H195   1.084       .  S
C192        C263   1.480       .  S
C192        C193   1.402       .  A
C193        H196   1.083       .  S
C197        C198   1.365   1_556  D
C197        C220   1.497       .  S
C197        C233   1.497   1_556  S
C198        C200   1.498       .  S
C198        C213   1.494   1_554  S
C199        C200   1.406   1_556  A
C199        C204   1.403       .  A
C199        H206   1.083       .  S
C200        C759   1.408       .  A
C201        C202   1.391       .  A
C201        C758   1.408       .  A
C201       Br208   1.915       .  S
C202        C761   1.406       .  A
C202        H207   1.082       .  S
C203        C204   1.418   1_554  A
C203        C760   1.406       .  A
C204       Br205   1.920       .  S
C209        C210   1.409   1_554  A
C209        C214   1.405       .  A
C209        H216   1.083       .  S
C210        C769   1.412       .  A
C211        C212   1.389       .  A
C211        C768   1.412       .  A
C211       Br218   1.923       .  S
C212        C771   1.404       .  A
C212        H217   1.083       .  S
C213        C214   1.413   1_556  A
C213        C770   1.404       .  A
C214       Br215   1.918       .  S
C219        C220   1.406   1_554  A
C219        C224   1.405       .  A
C219        H226   1.083       .  S
C220        C779   1.406       .  A
C221        C222   1.389       .  A
C221        C778   1.406       .  A
C221       Br228   1.916       .  S
C222        C781   1.407       .  A
C222        H227   1.082       .  S
C223        C224   1.418   1_556  A
C223        C780   1.407       .  A
C224       Br225   1.920       .  S
C229        C234   1.406       .  A
C229        C788   1.409       .  A
C229        H236   1.083       .  S
C230        C231   1.413       .  A
C230        C787   1.409   1_554  A
C231        C232   1.388       .  A
C231       Br238   1.922       .  S
C232        C233   1.404       .  A
C232        H237   1.084       .  S
C233        C792   1.415   1_554  A
C234        C791   1.415       .  A
C234       Br235   1.918       .  S
C239        C240   1.396       .  A
C239        C244   1.399       .  A
C239        H246   1.084       .  S
C240        C241   1.407       .  A
C241        C242   1.398       .  A
C241       Br248   1.920       .  S
C242        C243   1.407       .  A
C242        H247   1.083       .  S
C243        C244   1.423       .  A
C244       Br245   1.924       .  S
C249        C250   1.405       .  A
C249        C254   1.399       .  A
C249        H256   1.083       .  S
C250        C251   1.412       .  A
C251        C252   1.402       .  A
C251       Br258   1.920       .  S
C252        C253   1.403       .  A
C252        H257   1.083       .  S
C253        C254   1.409       .  A
C254       Br255   1.921       .  S
C259        C260   1.408       .  A
C259        C264   1.402       .  A
C259        H266   1.083       .  S
C260        C261   1.414       .  A
C261        C262   1.396       .  A
C261       Br268   1.922       .  S
C262        C263   1.402       .  A
C262        H267   1.084       .  S
C263        C264   1.407       .  A
C264       Br265   1.918       .  S
C269        C270   1.410       .  A
C269        C274   1.401       .  A
C269        H276   1.083       .  S
C270        C271   1.422       .  A
C271        C272   1.397       .  A
C271       Br278   1.924       .  S
C272        C273   1.396       .  A
C272        H277   1.084       .  S
C273        C274   1.404       .  A
C274       Br275   1.918       .  S
C279        C280   1.408       .  A
C279        C284   1.395       .  A
C279        H286   1.083       .  S
C280        C281   1.421       .  A
C281        C282   1.402       .  A
C281       Br288   1.922       .  S
C282        C283   1.398       .  A
C282        H287   1.083       .  S
C283        C284   1.404       .  A
C284       Br285   1.920       .  S
C289        C290   1.410       .  A
C289        C294   1.401       .  A
C289        H296   1.083       .  S
C290        C291   1.420       .  A
C291        C292   1.396       .  A
C291       Br298   1.923       .  S
C292        C293   1.399       .  A
C292        H297   1.084       .  S
C293        C294   1.407       .  A
C294       Br295   1.919       .  S
C299        C300   1.402       .  A
C299        C304   1.399       .  A
C299        H306   1.083       .  S
C300        C301   1.410       .  A
C301        C302   1.399       .  A
C301       Br308   1.921       .  S
C302        C303   1.407       .  A
C302        H307   1.083       .  S
C303        C304   1.416       .  A
C304       Br305   1.922       .  S
C309        C310   1.396       .  A
C309        C314   1.393       .  A
C309        H316   1.084       .  S
C310        C311   1.404       .  A
C311        C312   1.403       .  A
C311       Br318   1.917       .  S
C312        C313   1.410       .  A
C312        H317   1.083       .  S
C313        C314   1.419       .  A
C314       Br315   1.924       .  S
C319        C324   1.393       .  A
C319        C878   1.402       .  A
C319        H326   1.083       .  S
C320        C321   1.416   1_556  A
C320        C877   1.402       .  A
C321        C322   1.402       .  A
C321       Br328   1.921       .  S
C322        C323   1.406   1_554  A
C322        H327   1.082       .  S
C323        C882   1.415       .  A
C324        C881   1.415       .  A
C324       Br325   1.919       .  S
C329        C334   1.404       .  A
C329        C888   1.411       .  A
C329        H336   1.083       .  S
C330        C331   1.415       .  A
C330        C887   1.411   1_554  A
C331        C332   1.390       .  A
C331       Br338   1.920       .  S
C332        C333   1.403       .  A
C332        H337   1.084       .  S
C333        C892   1.413   1_554  A
C334        C891   1.413       .  A
C334       Br335   1.919       .  S
C339        C340   1.404       .  A
C339        C344   1.395       .  A
C339        H346   1.084       .  S
C340        C899   1.410   1_554  A
C341        C342   1.401       .  A
C341        C898   1.410       .  A
C341       Br348   1.918       .  S
C342        C343   1.411       .  A
C342        H347   1.083       .  S
C343        C902   1.417       .  A
C344        C901   1.417       .  A
C344       Br345   1.924   1_655  S
C349        C350   1.411   1_554  A
C349        C354   1.401   1_455  A
C349        H356   1.083       .  S
C350        C909   1.414       .  A
C351        C352   1.394       .  A
C351        C908   1.414       .  A
C351       Br358   1.917       .  S
C352        C911   1.403   1_455  A
C352        H357   1.084       .  S
C353        C354   1.410   1_556  A
C353        C910   1.403   1_655  A
C354       Br355   1.917       .  S
C359        C360   1.397       .  A
C359        C364   1.393       .  A
C359        H366   1.084       .  S
C360        C361   1.408       .  A
C361        C362   1.406       .  A
C361       Br368   1.918       .  S
C362        C363   1.408       .  A
C362        H367   1.083       .  S
C363        C364   1.418       .  A
C364       Br365   1.924       .  S
C369        C370   1.398       .  A
C369        C374   1.393       .  A
C369        H376   1.084       .  S
C370        C371   1.404       .  A
C371        C372   1.402       .  A
C371       Br378   1.916   1_455  S
C372        C373   1.408       .  A
C372        H377   1.083       .  S
C373        C374   1.414       .  A
C374       Br375   1.922       .  S
C379        C380   1.408       .  A
C379        C384   1.399       .  A
C379        H386   1.083       .  S
C380        C381   1.412       .  A
C381        C382   1.398       .  A
C381       Br388   1.921       .  S
C382        C383   1.404       .  A
C382        H387   1.080       .  S
C383        C384   1.407       .  A
C384       Br385   1.920       .  S
C389        C390   1.408       .  A
C389        C394   1.397       .  A
C389        H396   1.083       .  S
C390        C391   1.416       .  A
C391        C392   1.403       .  A
C391       Br398   1.920       .  S
C392        C393   1.401       .  A
C392        H397   1.083       .  S
C393        C394   1.405       .  A
C394       Br395   1.920       .  S
C399        C400   1.401       .  A
C399        C404   1.402       .  A
C399        H406   1.084       .  S
C400        C401   1.408       .  A
C401        C402   1.394       .  A
C401       Br408   1.921       .  S
C402        C403   1.404       .  A
C402        H407   1.084       .  S
C403        C404   1.413       .  A
C404       Br405   1.914       .  S
C409        C410   1.408       .  A
C409        C414   1.399       .  A
C409        H416   1.083       .  S
C410        C411   1.422       .  A
C411        C412   1.400       .  A
C411       Br418   1.923       .  S
C412        C413   1.400       .  A
C412        H417   1.084       .  S
C413        C414   1.408       .  A
C414       Br415   1.920       .  S
C419        C420   1.410       .  A
C419        C424   1.407       .  A
C419        H426   1.083       .  S
C420        C979   1.410   1_554  A
C421        C422   1.387       .  A
C421        C978   1.410       .  A
C421       Br428   1.927       .  S
C422        C981   1.408       .  A
C422        H427   1.075       .  S
C423        C424   1.415       .  A
C423        C980   1.408   1_554  A
C424       Br425   1.917       .  S
C429        C430   1.401       .  A
C429        C434   1.406       .  A
C429        H436   1.083       .  S
C430        C431   1.406       .  A
C431        C432   1.392       .  A
C431       Br438   1.922       .  S
C432        C433   1.404       .  A
C432        H437   1.083       .  S
C433        C434   1.418       .  A
C434       Br435   1.920       .  S
C439        C440   1.401       .  A
C439        C444   1.399       .  A
C439        H446   1.084       .  S
C440        C441   1.403       .  A
C441        C442   1.395       .  A
C441       Br448   1.919       .  S
C442        C443   1.410       .  A
C442        H447   1.083       .  S
C443        C444   1.418       .  A
C444       Br445   1.922       .  S
C449        C454   1.398       .  A
C449       C1008   1.398       .  A
C449        H456   1.084       .  S
C450        C451   1.404       .  A
C450       C1007   1.398   1_554  A
C451        C452   1.397       .  A
C451       Br458   1.920       .  S
C452        C453   1.415   1_554  A
C452        H457   1.078       .  S
C453       C1012   1.427       .  A
C454       C1011   1.427       .  A
C454       Br455   1.927       .  S
C459        C460   1.398       .  A
C459        C464   1.397       .  A
C459        H466   1.084       .  S
C460        C461   1.402       .  A
C461        C462   1.401       .  A
C461       Br468   1.917       .  S
C462        C463   1.412       .  A
C462        H467   1.083       .  S
C463        C464   1.421       .  A
C464       Br465   1.923       .  S
C469        C470   1.405       .  A
C469        C474   1.400       .  A
C469        H476   1.084       .  S
C470        C471   1.411       .  A
C471        C472   1.397       .  A
C471       Br478   1.922       .  S
C472        C473   1.408       .  A
C472        H477   1.083       .  S
C473        C474   1.414       .  A
C474       Br475   1.921       .  S
C479        C480   1.407       .  A
C479        C484   1.395       .  A
C479        H486   1.082   1_545  S
C480       C1039   1.414       .  A
C481        C482   1.400       .  A
C481       C1038   1.414   1_554  A
C481       Br488   1.922       .  S
C482        C483   1.406   1_554  A
C482        H487   1.076       .  S
C483       C1042   1.411       .  A
C484       C1041   1.411       .  A
C484       Br485   1.917       .  S
C489        C490   1.409       .  A
C489        C494   1.393       .  A
C489        H496   1.083       .  S
C490        C491   1.419       .  A
C491        C492   1.405       .  A
C491       Br498   1.920       .  S
C492        C493   1.401       .  A
C492        H497   1.083       .  S
C493        C494   1.402       .  A
C494       Br495   1.921       .  S
C499        C500   1.405       .  A
C499        C504   1.391       .  A
C499        H506   1.084       .  S
C500        C501   1.415       .  A
C501        C502   1.406       .  A
C501       Br508   1.919       .  S
C502        C503   1.404       .  A
C502        H507   1.084       .  S
C503        C504   1.404       .  A
C504       Br505   1.914       .  S
C509        C514   1.403   1_565  A
C509       C1068   1.408       .  A
C509        H516   1.083       .  S
C510        C511   1.411       .  A
C510       C1067   1.408   1_554  A
C511        C512   1.393       .  A
C511       Br518   1.923       .  S
C512        C513   1.406   1_564  A
C512        H517   1.084       .  S
C513       C1072   1.415       .  A
C514       C1071   1.415       .  A
C514       Br515   1.919       .  S
C519        C520   1.408       .  A
C519        C524   1.394       .  A
C519        H526   1.083       .  S
C520        C521   1.421       .  A
C521        C522   1.404       .  A
C521       Br528   1.921       .  S
C522        C523   1.400       .  A
C522        H527   1.083       .  S
C523        C524   1.404       .  A
C524       Br525   1.919       .  S
C529        C530   1.409       .  A
C529        C534   1.398       .  A
C529        H536   1.083       .  S
C530        C531   1.417       .  A
C531        C532   1.399       .  A
C531       Br538   1.922       .  S
C532        C533   1.402       .  A
C532        H537   1.084       .  S
C533        C534   1.409       .  A
C534       Br535   1.921       .  S
C539        C540   1.399       .  A
C539        C544   1.396       .  A
C539        H546   1.084       .  S
C540        C541   1.408       .  A
C541        C542   1.404       .  A
C541       Br548   1.918       .  S
C542        C543   1.406       .  A
C542        H547   1.083       .  S
C543        C544   1.415       .  A
C544       Br545   1.923       .  S
C549        C550   1.402       .  A
C549        C554   1.396       .  A
C549        H556   1.083       .  S
C550        C551   1.408       .  A
C551        C552   1.399       .  A
C551       Br558   1.920       .  S
C552        C553   1.408       .  A
C552        H557   1.083       .  S
C553        C554   1.417       .  A
C554       Br555   1.923       .  S
O559       Ni567   1.911       .  S
O559        C569   1.279       .  A
O560       Ni567   1.910       .  S
O560        C570   1.281       .  A
O561       Ni567   1.913       .  S
O561        C571   1.282       .  A
O562       Ni567   1.914       .  S
O562        C572   1.280       .  A
O563       Ni568   1.922       .  S
O563        C572   1.281       .  A
O564       Ni568   1.923       .  S
O564        C571   1.281       .  A
O565       Ni568   1.921       .  S
O565        C570   1.281       .  A
O566       Ni568   1.917       .  S
O566        C569   1.282       .  A
Ni567      Ni568   2.383       .  S
C569       C1111   1.486       .  S
C570       C1088   1.488       .  S
C571       C1078   1.492       .  S
C572       C1098   1.472       .  S
C573       C1068   1.488       .  S
C573        C578   1.406       .  A
C574        C575   1.407       .  A
C574        H579   1.083       .  S
C575       C1058   1.489       .  S
C576        C577   1.396       .  A
C576        H580   1.084       .  S
C577       C1051   1.473       .  S
C577        C578   1.398       .  A
C578        H581   1.084       .  S
C582       C1038   1.496   1_565  S
C582        C587   1.410       .  A
C583        C584   1.406       .  A
C583        H588   1.080       .  S
C584       C1028   1.486       .  S
C585        C586   1.397       .  A
C585        H589   1.084       .  S
C586       C1018   1.473       .  S
C586        C587   1.399       .  A
C587        H590   1.083       .  S
C591       C1011   1.512       .  S
C591        C596   1.420       .  A
C592        C593   1.400       .  A
C592        H597   1.077       .  S
C593        C998   1.472       .  S
C594        C595   1.395       .  A
C594        H598   1.084       .  S
C595        C988   1.474       .  S
C595        C596   1.403       .  A
C596        H599   1.079       .  S
C600        C978   1.490       .  S
C600        C601   1.405       .  A
C601        C602   1.404       .  A
C601        H606   1.084       .  S
C602       C1108   1.481       .  S
C603        C604   1.400   1_554  A
C603        H607   1.083       .  S
C604       C1101   1.485       .  S
C604        C605   1.402       .  A
C605        H608   1.083       .  S
C609        C610   1.373       .  D
C609       C1041   1.506       .  S
C609       C1071   1.498       .  S
C610        C981   1.506       .  S
C610       C1008   1.492       .  S
O611       Ni619   1.906       .  S
O611        C621   1.278       .  A
O612       Ni619   1.908       .  S
O612        C622   1.279       .  A
O613       Ni619   1.924       .  S
O613        C623   1.283       .  A
O614       Ni619   1.927       .  S
O614        C624   1.285       .  A
O615       Ni620   1.912       .  S
O615        C624   1.278       .  A
O616       Ni620   1.913       .  S
O616        C623   1.281       .  A
O617       Ni620   1.924       .  S
O617        C622   1.283       .  A
O618       Ni620   1.925       .  S
O618        C621   1.282       .  A
Ni619      Ni620   2.384       .  S
C621        C958   1.470       .  S
C622        C938   1.482       .  S
C623        C948   1.487       .  S
C624        C968   1.493       .  S
O625       Ni633   1.922       .  S
O625        C635   1.281       .  A
O626       Ni633   1.922       .  S
O626        C636   1.283       .  A
O627       Ni633   1.926       .  S
O627        C637   1.283       .  A
O628       Ni633   1.921       .  S
O628        C638   1.282       .  A
O629       Ni634   1.908       .  S
O629        C638   1.279       .  A
O630       Ni634   1.907       .  S
O630        C637   1.280       .  A
O631       Ni634   1.913       .  S
O631        C636   1.279       .  A
O632       Ni634   1.911       .  S
O632        C635   1.280       .  A
Ni633      Ni634   2.384       .  S
C635        C918   1.471       .  S
C636       C1021   1.492       .  S
C637       C1031   1.487       .  S
C638        C931   1.478       .  S
C639        C908   1.495       .  S
C639        C640   1.411       .  A
C640        C641   1.402       .  A
C640        H645   1.083       .  S
C641        C971   1.480       .  S
C641        C642   1.398       .  A
C642        H646   1.084       .  S
C643        C961   1.484       .  S
C643        C644   1.405       .  A
C644        H647   1.083       .  S
C648        C901   1.497   1_456  S
C648        C649   1.410       .  A
C649        C650   1.398       .  A
C649        H654   1.084       .  S
C650        C928   1.470       .  S
C650        C651   1.397       .  A
C651        H655   1.084       .  S
C652        C921   1.488       .  S
C652        C653   1.406       .  A
C653        H656   1.081       .  S
C657        C888   1.494       .  S
C657        C662   1.409       .  A
C658        C659   1.404       .  A
C658        H663   1.083       .  S
C659       C1091   1.481       .  S
C659        C660   1.401   1_556  A
C660        H664   1.084       .  S
C661       C1081   1.474       .  S
C661        C662   1.402       .  A
C662        H665   1.083       .  S
C666        C878   1.490       .  S
C666        C671   1.407       .  A
C667        C668   1.404       .  A
C667        H672   1.084       .  S
C668        C858   1.483       .  S
C669        C670   1.399       .  A
C669        H673   1.084       .  S
C670        C868   1.471       .  S
C670        C671   1.400       .  A
C671        H674   1.083       .  S
C675        C676   1.373       .  D
C675        C881   1.503       .  S
C675        C891   1.497       .  S
C676        C898   1.497       .  S
C676        C911   1.494       .  S
O677       Ni685   1.921       .  S
O677        C687   1.281       .  A
O678       Ni685   1.923       .  S
O678        C688   1.283       .  A
O679       Ni685   1.918       .  S
O679        C689   1.283       .  A
O680       Ni685   1.920       .  S
O680        C690   1.280       .  A
O681       Ni686   1.913       .  S
O681        C690   1.282       .  A
O682       Ni686   1.914       .  S
O682        C689   1.279       .  A
O683       Ni686   1.909       .  S
O683        C688   1.278       .  A
O684       Ni686   1.906       .  S
O684        C687   1.280       .  A
Ni685      Ni686   2.380       .  S
C687       C1001   1.488       .  S
C688        C848   1.490       .  S
C689        C838   1.490       .  S
C690        C991   1.485       .  S
O691       Ni699   1.918       .  S
O691        C701   1.281       .  A
O692       Ni699   1.915       .  S
O692        C702   1.280       .  A
O693       Ni699   1.906       .  S
O693        C703   1.278       .  A
O694       Ni699   1.906       .  S
O694        C704   1.277       .  A
O695       Ni700   1.928       .  S
O695        C704   1.284       .  A
O696       Ni700   1.926       .  S
O696        C703   1.283       .  A
O697       Ni700   1.920       .  S
O697        C702   1.282       .  A
O698       Ni700   1.916       .  S
O698        C701   1.281       .  A
Ni699      Ni700   2.381       .  S
C701        C818   1.482       .  S
C702        C861   1.486       .  S
C703        C871   1.486       .  S
C704        C828   1.492       .  S
O705       Ni713   1.916       .  S
O705        C715   1.280       .  A
O706       Ni713   1.918       .  S
O706        C716   1.279       .  A
O707       Ni713   1.928       .  S
O707        C717   1.283       .  A
O708       Ni713   1.932       .  S
O708        C718   1.286       .  A
O709       Ni714   1.903       .  S
O709        C718   1.276       .  A
O710       Ni714   1.906       .  S
O710        C717   1.280       .  A
O711       Ni714   1.922       .  S
O711        C716   1.282       .  A
O712       Ni714   1.922       .  S
O712        C715   1.282       .  A
Ni713      Ni714   2.384       .  S
C715        C808   1.480       .  S
C716       C1061   1.473       .  S
C717       C1048   1.490       .  S
C718        C801   1.490       .  S
C719        C788   1.489       .  S
C719        C724   1.407       .  A
C720        C721   1.403       .  A
C720        H725   1.084       .  S
C721        C951   1.475       .  S
C722        C723   1.400       .  A
C722        H726   1.084       .  S
C723        C941   1.482       .  S
C723        C724   1.402       .  A
C724        H727   1.084       .  S
C728        C781   1.497       .  S
C728        C729   1.413       .  A
C729        C730   1.405       .  A
C729        H734   1.082       .  S
C730        C811   1.479       .  S
C730        C731   1.400       .  A
C731        H735   1.084       .  S
C732        C798   1.474       .  S
C732        C733   1.398       .  A
C733        H736   1.083       .  S
C737        C768   1.488       .  S
C737        C738   1.410       .  A
C738        C739   1.404       .  A
C738        H743   1.084       .  S
C739        C851   1.477       .  S
C739        C740   1.400       .  A
C740        H744   1.084       .  S
C741        C841   1.471       .  S
C741        C742   1.399       .  A
C742        H745   1.083       .  S
C746        C761   1.496       .  S
C746        C751   1.414       .  A
C747        C748   1.401       .  A
C747        H752   1.082       .  S
C748        C831   1.472       .  S
C749        C750   1.398       .  A
C749        H753   1.084       .  S
C750        C821   1.480       .  S
C750        C751   1.402       .  A
C751        H754   1.083       .  S
C755        C756   1.365       .  D
C755        C778   1.497       .  S
C755        C791   1.497       .  S
C756        C758   1.498       .  S
C756        C771   1.494       .  S
C757        C758   1.406       .  A
C757        C762   1.403       .  A
C757        H764   1.083       .  S
C759        C760   1.391       .  A
C759       Br766   1.915       .  S
C760        H765   1.082       .  S
C761        C762   1.418       .  A
C762       Br763   1.920       .  S
C767        C768   1.409       .  A
C767        C772   1.405       .  A
C767        H774   1.083       .  S
C769        C770   1.389       .  A
C769       Br776   1.923       .  S
C770        H775   1.083       .  S
C771        C772   1.413       .  A
C772       Br773   1.918       .  S
C777        C778   1.406       .  A
C777        C782   1.405       .  A
C777        H784   1.083       .  S
C779        C780   1.389       .  A
C779       Br786   1.916       .  S
C780        H785   1.082       .  S
C781        C782   1.418       .  A
C782       Br783   1.920       .  S
C787        C792   1.406       .  A
C787        H794   1.083       .  S
C788        C789   1.413       .  A
C789        C790   1.388       .  A
C789       Br796   1.922       .  S
C790        C791   1.404       .  A
C790        H795   1.084       .  S
C792       Br793   1.918       .  S
C797        C798   1.396       .  A
C797        C802   1.399       .  A
C797        H804   1.084       .  S
C798        C799   1.407       .  A
C799        C800   1.398       .  A
C799       Br806   1.920       .  S
C800        C801   1.407       .  A
C800        H805   1.083       .  S
C801        C802   1.423       .  A
C802       Br803   1.924       .  S
C807        C808   1.405       .  A
C807        C812   1.399       .  A
C807        H814   1.083       .  S
C808        C809   1.412       .  A
C809        C810   1.402       .  A
C809       Br816   1.920       .  S
C810        C811   1.403       .  A
C810        H815   1.083       .  S
C811        C812   1.409       .  A
C812       Br813   1.921       .  S
C817        C818   1.408       .  A
C817        C822   1.402       .  A
C817        H824   1.083       .  S
C818        C819   1.414       .  A
C819        C820   1.396       .  A
C819       Br826   1.922       .  S
C820        C821   1.402       .  A
C820        H825   1.084       .  S
C821        C822   1.407       .  A
C822       Br823   1.918       .  S
C827        C828   1.410       .  A
C827        C832   1.401       .  A
C827        H834   1.083       .  S
C828        C829   1.422       .  A
C829        C830   1.397       .  A
C829       Br836   1.924       .  S
C830        C831   1.396       .  A
C830        H835   1.084       .  S
C831        C832   1.404       .  A
C832       Br833   1.918       .  S
C837        C838   1.408       .  A
C837        C842   1.395       .  A
C837        H844   1.083       .  S
C838        C839   1.421       .  A
C839        C840   1.402       .  A
C839       Br846   1.922       .  S
C840        C841   1.398       .  A
C840        H845   1.083       .  S
C841        C842   1.404       .  A
C842       Br843   1.920       .  S
C847        C848   1.410       .  A
C847        C852   1.401       .  A
C847        H854   1.083       .  S
C848        C849   1.420       .  A
C849        C850   1.396       .  A
C849       Br856   1.923       .  S
C850        C851   1.399       .  A
C850        H855   1.084       .  S
C851        C852   1.407       .  A
C852       Br853   1.920       .  S
C857        C858   1.402       .  A
C857        C862   1.399       .  A
C857        H864   1.083       .  S
C858        C859   1.410       .  A
C859        C860   1.399       .  A
C859       Br866   1.921       .  S
C860        C861   1.407       .  A
C860        H865   1.083       .  S
C861        C862   1.416       .  A
C862       Br863   1.922       .  S
C867        C868   1.396       .  A
C867        C872   1.393       .  A
C867        H874   1.084       .  S
C868        C869   1.404       .  A
C869        C870   1.403       .  A
C869       Br876   1.917       .  S
C870        C871   1.410       .  A
C870        H875   1.083       .  S
C871        C872   1.419       .  A
C872       Br873   1.924       .  S
C877        C882   1.393       .  A
C877        H884   1.083       .  S
C878        C879   1.416       .  A
C879        C880   1.402       .  A
C879       Br886   1.921       .  S
C880        C881   1.406       .  A
C880        H885   1.082       .  S
C882       Br883   1.919       .  S
C887        C892   1.404       .  A
C887        H894   1.083       .  S
C888        C889   1.415       .  A
C889        C890   1.390       .  A
C889       Br896   1.920       .  S
C890        C891   1.403       .  A
C890        H895   1.084       .  S
C892       Br893   1.919       .  S
C897        C898   1.404       .  A
C897        C902   1.395       .  A
C897        H904   1.084       .  S
C899        C900   1.401       .  A
C899       Br906   1.918       .  S
C900        C901   1.411   1_556  A
C900        H905   1.083       .  S
C902       Br903   1.924   1_655  S
C907        C908   1.411       .  A
C907        C912   1.401   1_455  A
C907        H914   1.083       .  S
C909        C910   1.393       .  A
C909       Br916   1.917       .  S
C910        H915   1.084       .  S
C911        C912   1.410       .  A
C912       Br913   1.917       .  S
C917        C918   1.397       .  A
C917        C922   1.393       .  A
C917        H924   1.084       .  S
C918        C919   1.408       .  A
C919        C920   1.406       .  A
C919       Br926   1.918       .  S
C920        C921   1.408       .  A
C920        H925   1.083       .  S
C921        C922   1.418       .  A
C922       Br923   1.924       .  S
C927        C928   1.398       .  A
C927        C932   1.393       .  A
C927        H934   1.084       .  S
C928        C929   1.404       .  A
C929        C930   1.402       .  A
C929       Br936   1.916   1_455  S
C930        C931   1.408       .  A
C930        H935   1.083       .  S
C931        C932   1.414       .  A
C932       Br933   1.922       .  S
C937        C938   1.408       .  A
C937        C942   1.399       .  A
C937        H944   1.083       .  S
C938        C939   1.412       .  A
C939        C940   1.398       .  A
C939       Br946   1.921       .  S
C940        C941   1.404       .  A
C940        H945   1.080       .  S
C941        C942   1.407       .  A
C942       Br943   1.920       .  S
C947        C948   1.408       .  A
C947        C952   1.397       .  A
C947        H954   1.083       .  S
C948        C949   1.416       .  A
C949        C950   1.403       .  A
C949       Br956   1.920       .  S
C950        C951   1.401       .  A
C950        H955   1.083       .  S
C951        C952   1.405       .  A
C952       Br953   1.920       .  S
C957        C958   1.401       .  A
C957        C962   1.402       .  A
C957        H964   1.084       .  S
C958        C959   1.408       .  A
C959        C960   1.394       .  A
C959       Br966   1.921       .  S
C960        C961   1.404       .  A
C960        H965   1.084       .  S
C961        C962   1.413       .  A
C962       Br963   1.914       .  S
C967        C968   1.408       .  A
C967        C972   1.399       .  A
C967        H974   1.083       .  S
C968        C969   1.422       .  A
C969        C970   1.400       .  A
C969       Br976   1.923       .  S
C970        C971   1.400       .  A
C970        H975   1.084       .  S
C971        C972   1.408       .  A
C972       Br973   1.920       .  S
C977        C978   1.410       .  A
C977        C982   1.407       .  A
C977        H984   1.083       .  S
C979        C980   1.387       .  A
C979       Br986   1.927       .  S
C980        H985   1.075       .  S
C981        C982   1.415       .  A
C982       Br983   1.917       .  S
C987        C988   1.401       .  A
C987        C992   1.406       .  A
C987        H994   1.083       .  S
C988        C989   1.406       .  A
C989        C990   1.392       .  A
C989       Br996   1.922       .  S
C990        C991   1.404       .  A
C990        H995   1.083       .  S
C991        C992   1.418       .  A
C992       Br993   1.920       .  S
C997        C998   1.401       .  A
C997       C1002   1.399       .  A
C997       H1004   1.084       .  S
C998        C999   1.403       .  A
C999       C1000   1.395       .  A
C999      Br1006   1.919       .  S
C1000      C1001   1.410       .  A
C1000      H1005   1.083       .  S
C1001      C1002   1.418       .  A
C1002     Br1003   1.922       .  S
C1007      C1012   1.398       .  A
C1007      H1014   1.084       .  S
C1008      C1009   1.404       .  A
C1009      C1010   1.397       .  A
C1009     Br1016   1.920       .  S
C1010      C1011   1.415       .  A
C1010      H1015   1.078       .  S
C1012     Br1013   1.927       .  S
C1017      C1018   1.398       .  A
C1017      C1022   1.397       .  A
C1017      H1024   1.084       .  S
C1018      C1019   1.402       .  A
C1019      C1020   1.401       .  A
C1019     Br1026   1.917       .  S
C1020      C1021   1.412       .  A
C1020      H1025   1.083       .  S
C1021      C1022   1.421       .  A
C1022     Br1023   1.923       .  S
C1027      C1028   1.405       .  A
C1027      C1032   1.400       .  A
C1027      H1034   1.084       .  S
C1028      C1029   1.411       .  A
C1029      C1030   1.397       .  A
C1029     Br1036   1.922       .  S
C1030      C1031   1.408       .  A
C1030      H1035   1.083       .  S
C1031      C1032   1.414       .  A
C1032     Br1033   1.921       .  S
C1037      C1038   1.407       .  A
C1037      C1042   1.395       .  A
C1037      H1044   1.082   1_545  S
C1039      C1040   1.400       .  A
C1039     Br1046   1.922       .  S
C1040      C1041   1.406       .  A
C1040      H1045   1.076       .  S
C1042     Br1043   1.917       .  S
C1047      C1048   1.409       .  A
C1047      C1052   1.393       .  A
C1047      H1054   1.083       .  S
C1048      C1049   1.419       .  A
C1049      C1050   1.405       .  A
C1049     Br1056   1.920       .  S
C1050      C1051   1.401       .  A
C1050      H1055   1.083       .  S
C1051      C1052   1.402       .  A
C1052     Br1053   1.921       .  S
C1057      C1058   1.405       .  A
C1057      C1062   1.391       .  A
C1057      H1064   1.084       .  S
C1058      C1059   1.415       .  A
C1059      C1060   1.406       .  A
C1059     Br1066   1.919       .  S
C1060      C1061   1.404       .  A
C1060      H1065   1.084       .  S
C1061      C1062   1.404       .  A
C1062     Br1063   1.914       .  S
C1067      C1072   1.403   1_565  A
C1067      H1074   1.083       .  S
C1068      C1069   1.411       .  A
C1069      C1070   1.393       .  A
C1069     Br1076   1.923       .  S
C1070      C1071   1.406   1_565  A
C1070      H1075   1.084       .  S
C1072     Br1073   1.919       .  S
C1077      C1078   1.408       .  A
C1077      C1082   1.394       .  A
C1077      H1084   1.083       .  S
C1078      C1079   1.421       .  A
C1079      C1080   1.404       .  A
C1079     Br1086   1.921       .  S
C1080      C1081   1.400       .  A
C1080      H1085   1.083       .  S
C1081      C1082   1.404       .  A
C1082     Br1083   1.919       .  S
C1087      C1088   1.409       .  A
C1087      C1092   1.398       .  A
C1087      H1094   1.083       .  S
C1088      C1089   1.417       .  A
C1089      C1090   1.399       .  A
C1089     Br1096   1.922       .  S
C1090      C1091   1.402       .  A
C1090      H1095   1.084       .  S
C1091      C1092   1.409       .  A
C1092     Br1093   1.921       .  S
C1097      C1098   1.399       .  A
C1097      C1102   1.396       .  A
C1097      H1104   1.084       .  S
C1098      C1099   1.408       .  A
C1099      C1100   1.404       .  A
C1099     Br1106   1.918       .  S
C1100      C1101   1.406       .  A
C1100      H1105   1.083       .  S
C1101      C1102   1.415       .  A
C1102     Br1103   1.923       .  S
C1107      C1108   1.402       .  A
C1107      C1112   1.396       .  A
C1107      H1114   1.083       .  S
C1108      C1109   1.408       .  A
C1109      C1110   1.399       .  A
C1109     Br1116   1.920       .  S
C1110      C1111   1.408       .  A
C1110      H1115   1.083       .  S
C1111      C1112   1.417       .  A
C1112     Br1113   1.923       .  S
