geometry optimzed in LAMMPS
_audit_creation_date              2020-11-30 
_audit_creation_method            'lammps2cif' 
_symmetry_space_group_name_H-M    'P1' 
_symmetry_Int_Tables_number       1 
_symmetry_cell_setting            triclinic 
loop_ 
_symmetry_equiv_pos_as_xyz 
  x,y,z 
_cell_length_a                    28.13091282 
_cell_length_b                    42.299038520664574 
_cell_length_c                    34.115001626503904 
_cell_angle_alpha                 91.57256209684473 
_cell_angle_beta                  89.61894994384761 
_cell_angle_gamma                 95.24693376186342 
loop_ 
_atom_site_label 
_atom_site_type_symbol 
_atom_site_fract_x 
_atom_site_fract_y 
_atom_site_fract_z 
_atom_site_charge 
C1          C  0.19427834  0.25346402  0.00107368     0.03400
C2          C  0.16741555  0.24910459  0.03605095    -0.12800
C3          C  0.11887067  0.25469389  0.03710097     0.00900
C4          C  0.09929515  0.26697174  0.00375564    -0.11300
C5          C  0.12260015  0.26598920  0.96767767     0.03400
C6          C  0.17070182  0.26023348  0.96637296    -0.10700
H7          H  0.18423310  0.24211167  0.06249497     0.09000
H8          H  0.06387306  0.27463879  0.00438898     0.06500
H9          H  0.18958841  0.26081684  0.93857526     0.06300
C10         C  0.40001811  0.24967528  0.99993772     0.03400
C11         C  0.42353684  0.24195368  0.03424378    -0.12800
C12         C  0.47083920  0.23453587  0.03231182     0.00900
C13         C  0.49359066  0.23324841  0.99595980    -0.11300
C14         C  0.47456644  0.24661297  0.96302523     0.03400
C15         C  0.42657569  0.25363532  0.96474176    -0.10700
H16         H  0.40512937  0.24177911  0.06225787     0.09000
H17         H  0.02860620  0.22489605  0.99496660     0.06500
H18         H  0.40986384  0.26135628  0.93862830     0.06300
C19         C  0.04623766  0.20605197  0.11541592     0.86700
C20         C  0.00349285  0.20505087  0.08662657    -0.53500
C21         C  0.99998118  0.23266678  0.06791777     0.09700
C22         C  0.03920686  0.25890318  0.07897399     0.20600
C23         C  0.08981337  0.21644647  0.08930707    -0.54200
C24         C  0.08635296  0.24418682  0.07007054     0.09800
C25         C  0.04020039  0.23499565  0.14279580    -0.53800
C26         C  0.03703491  0.26283038  0.12385077     0.10300
H27         H  0.48062770  0.18424485  0.07788690     0.14800
H28         H  0.03507145  0.28127253  0.06369620     0.00600
H29         H  0.11899823  0.20172946  0.08417532     0.15100
H30         H  0.04094675  0.23364963  0.17444895     0.14900
C31         C  0.04802198  0.29462718  0.88442490     0.86700
C32         C  0.00433587  0.28458809  0.91061448    -0.53500
C33         C  0.00723306  0.25676814  0.92986369     0.09700
C34         C  0.05409929  0.24162951  0.92079508     0.20600
C35         C  0.09068215  0.29528632  0.91316099    -0.54200
C36         C  0.09385704  0.26763614  0.93181910     0.09800
C37         C  0.05348623  0.26568356  0.85700722    -0.53800
C38         C  0.05627274  0.23781654  0.87588252     0.10300
H39         H  0.47561343  0.29963729  0.91582739     0.14800
H40         H  0.05778214  0.21908314  0.93582159     0.00600
H41         H  0.11339895  0.31611554  0.92227427     0.15100
H42         H  0.05306057  0.26707628  0.82533415     0.14900
N43         N  0.05381651  0.42502761  0.24869321    -0.27000
N44         N  0.05700509  0.43956181  0.21485576    -0.34900
C45         C  0.05514969  0.41751699  0.18553047     0.01300
C46         C  0.05085544  0.38757651  0.20168332     0.07300
C47         C  0.04982793  0.39344358  0.24183586    -0.05800
H48         H  0.05599763  0.42304459  0.15477599     0.08000
H49         H  0.04698861  0.37600870  0.26454548     0.09200
Cu50       Cu  0.06368606  0.48883184  0.21054682     0.44200
Cu51       Cu  0.05584674  0.44868315  0.30279930     0.42000
Cu52       Cu  0.07987814  0.03447354  0.30200792     0.43900
N53         N  0.06998364  0.03831155  0.21425431    -0.34400
N54         N  0.07720269  0.05503513  0.24736505    -0.28700
C55         C  0.07789366  0.08617814  0.23972596    -0.04800
C56         C  0.07006559  0.08918620  0.20002190     0.07400
C57         C  0.06541074  0.05834497  0.18483085     0.01200
H58         H  0.08139439  0.10514172  0.26174120     0.08900
H59         H  0.05834577  0.05093541  0.15467826     0.08000
N60         N  0.07201103  0.00843985  0.35297301    -0.35900
N61         N  0.06193391  0.47729965  0.35320097    -0.28100
C62         C  0.05578482  0.46811036  0.39047496    -0.03300
C63         C  0.06257006  0.49470461  0.41530168     0.05300
C64         C  0.07276951  0.01982387  0.39018254     0.03400
H65         H  0.04529889  0.44392344  0.39844836     0.08500
H66         H  0.07934581  0.04473795  0.39823422     0.07300
N67         N  0.02100070  0.44620413  0.75295512    -0.27000
N68         N  0.02959322  0.46293710  0.78588825    -0.34900
C69         C  0.03413662  0.44285213  0.81527162     0.01300
C70         C  0.02786438  0.41200763  0.80019638     0.07300
C71         C  0.01926875  0.41504618  0.76065028    -0.05800
H72         H  0.04213466  0.45019427  0.84530788     0.08000
H73         H  0.01448930  0.39605522  0.73874299     0.09200
Cu74       Cu  0.03714849  0.01244240  0.78926925     0.44200
Cu75       Cu  0.01805149  0.46652591  0.69831292     0.42000
Cu76       Cu  0.04661197  0.05189594  0.69652341     0.43900
N77         N  0.04320345  0.06167465  0.78436466    -0.34400
N78         N  0.04740504  0.07599645  0.75040110    -0.28700
C79         C  0.05021987  0.10762478  0.75692745    -0.05000
C80         C  0.04713737  0.11368913  0.79694831     0.07400
C81         C  0.04304221  0.08388318  0.81340766     0.01200
H82         H  0.05334825  0.12494250  0.73408288     0.08900
H83         H  0.04069989  0.07861194  0.84422954     0.08000
N84         N  0.03854006  0.02292341  0.64643037    -0.35900
N85         N  0.02669493  0.49196156  0.64705138    -0.28100
C86         C  0.02468223  0.48026949  0.60997544    -0.03300
C87         C  0.03568162  0.00503101  0.58453355     0.05300
C88         C  0.04441491  0.03170532  0.60898186     0.03400
H89         H  0.01668289  0.45539829  0.60221402     0.08500
H90         H  0.05592762  0.05563881  0.60055523     0.07300
C91         C  0.05311463  0.47392100  0.52374800    -0.12000
C92         C  0.04101012  0.00259699  0.54105277     0.05000
C93         C  0.03588777  0.02848213  0.51655521    -0.07300
C94         C  0.04394091  0.02539872  0.47609748    -0.08100
C95         C  0.05630306  0.49678479  0.45876409    -0.02600
C96         C  0.06116165  0.47082104  0.48326611     0.04200
N97         N  0.07652450  0.44158187  0.46811733     0.66700
H98         H  0.05834324  0.45391777  0.54186929     0.15600
H99         H  0.53829940  0.04538908  0.45804751     0.15300
N100        N  0.51985758  0.05758861  0.53174372     0.74400
O101        O  0.11958677  0.44023152  0.45815000    -0.39000
O102        O  0.04960636  0.41620098  0.47116554    -0.39000
O103        O  0.54611820  0.08318642  0.52813611    -0.39700
O104        O  0.47704297  0.05852332  0.54264914    -0.39700
C105        C  0.07734557  0.17105153  0.80152125    -0.12000
C106        C  0.04891487  0.14536643  0.81726170     0.05000
C107        C  0.02339473  0.15040766  0.85232487    -0.07300
C108        C  0.02729199  0.18043258  0.87102730    -0.08100
C109        C  0.05585056  0.20610737  0.85546230    -0.02600
C110        C  0.08132728  0.20111960  0.82031669     0.04200
N111        N  0.11306252  0.22581129  0.80421311     0.66700
H112        H  0.09782740  0.16758166  0.77499282     0.15600
H113        H  0.50611410  0.18393255  0.89721600     0.15300
N114        N  0.49078000  0.12599001  0.86806507     0.74400
O115        O  0.15250832  0.23387873  0.82069240    -0.39000
O116        O  0.10538758  0.23570667  0.77047445    -0.39000
O117        O  0.49706706  0.11634999  0.90216270    -0.39700
O118        O  0.45181186  0.11806594  0.85077013    -0.39700
C119        C  0.07819305  0.35134874  0.86431643    -0.12000
C120        C  0.04290533  0.32532019  0.86194771     0.05000
C121        C  0.00308292  0.32821712  0.83726172    -0.07300
C122        C  0.99895655  0.35641862  0.81714055    -0.08100
C123        C  0.03354072  0.38232423  0.82106092    -0.02600
C124        C  0.07355618  0.37948819  0.84467482     0.04200
N125        N  0.11147703  0.40437425  0.84722339     0.66700
H126        H  0.11079411  0.35037714  0.88020527     0.15600
H127        H  0.96817164  0.35820272  0.79868572     0.15300
N128        N  0.96632181  0.30277599  0.83218902     0.74400
O129        O  0.11761783  0.42067805  0.87860985    -0.39000
O130        O  0.14343459  0.40623731  0.82104383    -0.39000
O131        O  0.92659213  0.30466408  0.84907255    -0.39700
O132        O  0.96922383  0.28305031  0.80404778    -0.39700
C133        C  0.06509072  0.32042631  0.12680109    -0.12000
C134        C  0.03814360  0.29474132  0.14395057     0.05000
C135        C  0.01500381  0.30002618  0.18013372    -0.07300
C136        C  0.02012235  0.33026076  0.19848542    -0.08100
C137        C  0.04706378  0.35591075  0.18119783    -0.02600
C138        C  0.06956758  0.35068873  0.14477763     0.04200
N139        N  0.09942133  0.37527587  0.12654811     0.66700
H140        H  0.08458149  0.31689740  0.09978902     0.15600
H141        H  0.50156726  0.33386207  0.22598955     0.15300
N142        N  0.48444595  0.27548305  0.19789425     0.74400
O143        O  0.14093863  0.38276447  0.13953544    -0.39000
O144        O  0.08792254  0.38511471  0.09364455    -0.39000
O145        O  0.99411561  0.26631027  0.23158119    -0.39700
O146        O  0.44423009  0.26691345  0.18298838    -0.39700
C147        C  0.09649673  0.14539176  0.18378960    -0.12000
C148        C  0.06342975  0.11871891  0.17903335     0.05000
C149        C  0.02419199  0.12056203  0.15420706    -0.07300
C150        C  0.01864528  0.14853857  0.13441198    -0.08100
C151        C  0.05229468  0.17543745  0.13789422    -0.02600
C152        C  0.09159897  0.17339822  0.16342894     0.04200
N153        N  0.12723425  0.19947196  0.16898097     0.66700
H154        H  0.12680918  0.14433094  0.20294242     0.15600
H155        H  0.48673640  0.14860842  0.11758290     0.15300
N156        N  0.48770521  0.09477776  0.15055331     0.74400
O157        O  0.12392369  0.21833706  0.19796122    -0.39000
O158        O  0.16683913  0.19885957  0.15151803    -0.39000
O159        O  0.45463866  0.09185193  0.17572640    -0.39700
O160        O  0.48404765  0.07849888  0.11898885    -0.39700
C161        C  0.31836542  0.22744799  0.01853158    -0.12000
C162        C  0.34757252  0.25195077  0.00103093     0.05000
C163        C  0.32591894  0.27682000  0.98350563    -0.07300
C164        C  0.27602077  0.27636332  0.98314635    -0.08100
C165        C  0.24684029  0.25175547  0.00050607    -0.02600
C166        C  0.26853863  0.22701878  0.01824825     0.04200
N167        N  0.24055971  0.20044975  0.03424566     0.66700
H168        H  0.33433011  0.20779066  0.03133849     0.15600
H169        H  0.25997002  0.29596887  0.97029663     0.15300
N170        N  0.35399041  0.30348246  0.96781526     0.74400
O171        O  0.21619436  0.18119213  0.01175841    -0.39000
O172        O  0.24511838  0.19390382  0.06981945    -0.39000
O173        O  0.34961222  0.31022788  0.93228941    -0.39700
O174        O  0.37778772  0.32279888  0.99061234    -0.39700
C175        C  0.19427961  0.75347208  0.00115288     0.03400
C176        C  0.16739839  0.74910778  0.03612107    -0.12800
C177        C  0.11884911  0.75469049  0.03715215     0.00900
C178        C  0.09929019  0.76696745  0.00379924    -0.11300
C179        C  0.12261576  0.76598732  0.96773052     0.03400
C180        C  0.17071803  0.76023646  0.96644368    -0.10700
H181        H  0.18420362  0.74211717  0.06257170     0.09000
H182        H  0.06386670  0.77463200  0.00441843     0.06500
H183        H  0.18961785  0.76082102  0.93865196     0.06300
C184        C  0.40002109  0.74969021  0.99996125     0.03400
C185        C  0.42356364  0.74197924  0.03425940    -0.12800
C186        C  0.47086300  0.73455873  0.03230846     0.00900
C187        C  0.49358945  0.73325784  0.99594677    -0.11300
C188        C  0.47454331  0.74661224  0.96301532     0.03400
C189        C  0.42655354  0.75363687  0.96475063    -0.10700
H190        H  0.40517587  0.74181294  0.06228228     0.09000
H191        H  0.02860841  0.72488941  0.99499258     0.06500
H192        H  0.40982373  0.76135072  0.93864167     0.06300
C193        C  0.04618475  0.70604954  0.11545479     0.86700
C194        C  0.00345701  0.70503789  0.08664970    -0.53500
C195        C  0.99993944  0.73264808  0.06793296     0.09700
C196        C  0.03915578  0.75889121  0.07899380     0.20600
C197        C  0.08976889  0.71644259  0.08935244    -0.54200
C198        C  0.08631168  0.74417974  0.07010877     0.09800
C199        C  0.04013444  0.73499685  0.14282320    -0.53800
C200        C  0.03696579  0.76282597  0.12386884     0.10300
H201        H  0.48063918  0.68428620  0.07788164     0.14800
H202        H  0.03501950  0.78125658  0.06370832     0.00600
H203        H  0.11895996  0.70172799  0.08423247     0.15100
H204        H  0.04087604  0.73365636  0.17447793     0.14900
C205        C  0.04808915  0.79462437  0.88444993     0.86700
C206        C  0.00439170  0.78459448  0.91063453    -0.53500
C207        C  0.00727406  0.75677346  0.92988710     0.09700
C208        C  0.05413700  0.74162848  0.92083033     0.20600
C209        C  0.09073511  0.79528101  0.91319733    -0.54200
C210        C  0.09389651  0.76763201  0.93185988     0.09800
C211        C  0.05354747  0.76567661  0.85703860    -0.53800
C212        C  0.05631910  0.73781077  0.87591934     0.10300
H213        H  0.47555385  0.79962738  0.91581518     0.14800
H214        H  0.05781045  0.71908250  0.93586026     0.00600
H215        H  0.11343585  0.81611731  0.92232527     0.15100
H216        H  0.05312325  0.76706576  0.82536478     0.14900
N217        N  0.05378972  0.92503071  0.24868588    -0.27000
N218        N  0.05697070  0.93956271  0.21484721    -0.34900
C219        C  0.05507881  0.91751694  0.18552313     0.01300
C220        C  0.05077153  0.88757774  0.20167837     0.07300
C221        C  0.04977107  0.89344635  0.24183108    -0.05800
H222        H  0.05592062  0.92304363  0.15476840     0.08000
H223        H  0.04693966  0.87601247  0.26454196     0.09200
Cu224      Cu  0.06371339  0.98883040  0.21053643     0.44200
Cu225      Cu  0.05589386  0.94869321  0.30278571     0.42000
Cu226      Cu  0.07975917  0.53446118  0.30203559     0.43900
N227        N  0.06991318  0.53831448  0.21428007    -0.34400
N228        N  0.07711559  0.55503054  0.24739840    -0.28700
C229        C  0.07780331  0.58617540  0.23977260    -0.04800
C230        C  0.06998991  0.58919269  0.20006921     0.07400
C231        C  0.06534108  0.55835601  0.18486425     0.01200
H232        H  0.08128988  0.60513296  0.26179564     0.08900
H233        H  0.05828032  0.55095649  0.15470711     0.08000
N234        N  0.07184898  0.50843013  0.35299701    -0.35900
N235        N  0.06206665  0.97731183  0.35318006    -0.28100
C236        C  0.05594474  0.96812286  0.39045597    -0.03300
C237        C  0.06277959  0.99471379  0.41528305     0.05300
C238        C  0.07255814  0.51981618  0.39020491     0.03400
H239        H  0.04543721  0.94393913  0.39842965     0.08500
H240        H  0.07910606  0.54473165  0.39825846     0.07300
N241        N  0.02123649  0.94620820  0.75294742    -0.27000
N242        N  0.02986508  0.96294002  0.78587696    -0.34900
C243        C  0.03441211  0.94285288  0.81525798     0.01300
C244        C  0.02809817  0.91200899  0.80018608     0.07300
C245        C  0.01948035  0.91504947  0.76064398    -0.05800
H246        H  0.04242969  0.95019222  0.84529210     0.08000
H247        H  0.01466111  0.89605805  0.73874043     0.09200
Cu248      Cu  0.03687639  0.51243823  0.78927534     0.44200
Cu249      Cu  0.01826091  0.96652715  0.69830327     0.42000
Cu250      Cu  0.04637369  0.55190101  0.69652837     0.43900
N251        N  0.04299368  0.56166995  0.78437485    -0.34400
N252        N  0.04720743  0.57599570  0.75041419    -0.28700
C253        C  0.05007524  0.60762432  0.75695003    -0.05000
C254        C  0.04701570  0.61368421  0.79697372     0.07400
C255        C  0.04287807  0.58387530  0.81342437     0.01200
H256        H  0.05322638  0.62494604  0.73411048     0.08900
H257        H  0.04054050  0.57859905  0.84424491     0.08000
N258        N  0.03829402  0.52292456  0.64643561    -0.35900
N259        N  0.02691977  0.99196279  0.64704043    -0.28100
C260        C  0.02490824  0.98027577  0.60996182    -0.03300
C261        C  0.03542945  0.50502336  0.58454239     0.05300
C262        C  0.04415017  0.53170307  0.60898365     0.03400
H263        H  0.01689213  0.95540691  0.60219591     0.08500
H264        H  0.05564242  0.55563761  0.60054735     0.07300
C265        C  0.05330033  0.97392010  0.52372802    -0.12000
C266        C  0.04075441  0.50258409  0.54106307     0.05000
C267        C  0.03556422  0.52845444  0.51655884    -0.07300
C268        C  0.04363060  0.52537361  0.47610230    -0.08100
C269        C  0.05653713  0.99679476  0.45874896    -0.02600
C270        C  0.06133607  0.97081809  0.48324467     0.04200
N271        N  0.07662162  0.94155942  0.46808818     0.66700
H272        H  0.05847948  0.95390408  0.54184187     0.15600
H273        H  0.53865748  0.54542704  0.45805064     0.15300
N274        N  0.52026535  0.55763822  0.53174675     0.74400
O275        O  0.11967913  0.94015812  0.45813710    -0.39000
O276        O  0.04963695  0.91620613  0.47112335    -0.39000
O277        O  0.54660840  0.58320470  0.52816571    -0.39700
O278        O  0.47744884  0.55863167  0.54261839    -0.39700
C279        C  0.07730816  0.67103149  0.80155665    -0.12000
C280        C  0.04884867  0.64535934  0.81729744     0.05000
C281        C  0.02335134  0.65041130  0.85236975    -0.07300
C282        C  0.02728739  0.68043544  0.87107349    -0.08100
C283        C  0.05586856  0.70609815  0.85550465    -0.02600
C284        C  0.08133387  0.70109775  0.82035694     0.04200
N285        N  0.11310125  0.72577380  0.80425679     0.66700
H286        H  0.09777755  0.66755199  0.77502388     0.15600
H287        H  0.50610587  0.68392006  0.89716589     0.15300
N288        N  0.49083598  0.62597328  0.86801013     0.74400
O289        O  0.15254425  0.73382690  0.82074777    -0.39000
O290        O  0.10545120  0.73567171  0.77051483    -0.39000
O291        O  0.49710820  0.61634246  0.90211445    -0.39700
O292        O  0.45188973  0.61802404  0.85069391    -0.39700
C293        C  0.07836997  0.85130584  0.86427133    -0.12000
C294        C  0.04301145  0.82531664  0.86196154     0.05000
C295        C  0.00316902  0.82824712  0.83730983    -0.07300
C296        C  0.99908205  0.85645075  0.81718271    -0.08100
C297        C  0.03373317  0.88232167  0.82105415    -0.02600
C298        C  0.07377614  0.87944706  0.84462184     0.04200
N299        N  0.11176294  0.90429150  0.84710834     0.66700
H300        H  0.11100369  0.85029321  0.88011417     0.15600
H301        H  0.96827810  0.85826321  0.79875757     0.15300
N302        N  0.96634996  0.80283814  0.83227724     0.74400
O303        O  0.11799082  0.92061540  0.87847149    -0.39000
O304        O  0.14368543  0.90609301  0.82089828    -0.39000
O305        O  0.92661473  0.80480140  0.84912415    -0.39700
O306        O  0.96923177  0.78305232  0.80419851    -0.39700
C307        C  0.06500380  0.82042379  0.12680493    -0.12000
C308        C  0.03806179  0.79473944  0.14395963     0.05000
C309        C  0.01491940  0.80002688  0.18014120    -0.07300
C310        C  0.02003426  0.83026338  0.19848770    -0.08100
C311        C  0.04697302  0.85591197  0.18119536    -0.02600
C312        C  0.06947535  0.85068786  0.14477525     0.04200
N313        N  0.09932464  0.87527441  0.12654037     0.66700
H314        H  0.08449741  0.81689335  0.09979471     0.15600
H315        H  0.50165334  0.83385697  0.22598688     0.15300
N316        N  0.48452584  0.77548218  0.19788196     0.74400
O317        O  0.14083726  0.88277370  0.13953175    -0.39000
O318        O  0.08782606  0.88510544  0.09363268    -0.39000
O319        O  0.99403237  0.76631998  0.23159822    -0.39700
O320        O  0.44430340  0.76692408  0.18298102    -0.39700
C321        C  0.09648110  0.64537519  0.18378282    -0.12000
C322        C  0.06335378  0.61872923  0.17909388     0.05000
C323        C  0.02404423  0.62060313  0.15435208    -0.07300
C324        C  0.01850826  0.64857943  0.13456030    -0.08100
C325        C  0.05222592  0.67544420  0.13795119    -0.02600
C326        C  0.09158176  0.67338351  0.16342945     0.04200
N327        N  0.12726159  0.69943765  0.16892973     0.66700
H328        H  0.12684194  0.64429265  0.20288667     0.15600
H329        H  0.48696887  0.64852687  0.11737393     0.15300
N330        N  0.48792025  0.59470244  0.15030611     0.74400
O331        O  0.12394272  0.71837878  0.19783250    -0.39000
O332        O  0.16688840  0.69874745  0.15151945    -0.39000
O333        O  0.45478716  0.59171372  0.17541480    -0.39700
O334        O  0.48437802  0.57846435  0.11870673    -0.39700
C335        C  0.31838086  0.72747399  0.01860773    -0.12000
C336        C  0.34757705  0.75196866  0.00108010     0.05000
C337        C  0.32591317  0.77683318  0.98355515    -0.07300
C338        C  0.27601534  0.77637710  0.98321693    -0.08100
C339        C  0.24684419  0.75177378  0.00059570    -0.02600
C340        C  0.26855355  0.72704513  0.01834517     0.04200
N341        N  0.24058573  0.70048225  0.03436736     0.66700
H342        H  0.33435355  0.70782115  0.03141772     0.15600
H343        H  0.25995755  0.79597772  0.97036221     0.15300
N344        N  0.35397497  0.80348903  0.96783939     0.74400
O345        O  0.21621805  0.68121102  0.01189819    -0.39000
O346        O  0.24516135  0.69395358  0.06994492    -0.39000
O347        O  0.34957199  0.81022199  0.93231199    -0.39700
O348        O  0.37778793  0.82281315  0.99061701    -0.39700
C349        C  0.69428009  0.25347191  0.00115330     0.03400
C350        C  0.66739869  0.24910730  0.03612136    -0.12800
C351        C  0.61884940  0.25468996  0.03715238     0.00900
C352        C  0.59929068  0.26696739  0.00379969    -0.11300
C353        C  0.62261644  0.26598769  0.96773102     0.03400
C354        C  0.67071865  0.26023669  0.96644417    -0.10700
H355        H  0.68420373  0.24211648  0.06257196     0.09000
H356        H  0.56386720  0.27463193  0.00441894     0.06500
H357        H  0.68961853  0.26082145  0.93865248     0.06300
C358        C  0.90002160  0.24968990  0.99996130     0.03400
C359        C  0.92356435  0.24197948  0.03425957    -0.12800
C360        C  0.97086374  0.23455905  0.03230870     0.00900
C361        C  0.99359005  0.23325766  0.99594699    -0.11300
C362        C  0.97454369  0.24661155  0.96301529     0.03400
C363        C  0.92655386  0.25363608  0.96475053    -0.10700
H364        H  0.90517672  0.24181355  0.06228251     0.09000
H365        H  0.52860877  0.22488947  0.99499249     0.06500
H366        H  0.90982390  0.26134955  0.93864143     0.06300
C367        C  0.54618485  0.20604807  0.11545413     0.86700
C368        C  0.50345695  0.20503679  0.08664919    -0.53500
C369        C  0.49993951  0.23264724  0.06793289     0.09700
C370        C  0.53915599  0.25889017  0.07899405     0.20600
C371        C  0.58976894  0.21644131  0.08935183    -0.54200
C372        C  0.58631180  0.24417871  0.07010866     0.09800
C373        C  0.54013478  0.23499514  0.14282303    -0.53800
C374        C  0.53696625  0.26282450  0.12386916     0.10300
H375        H  0.98064007  0.18428684  0.07788246     0.14800
H376        H  0.53501971  0.28125568  0.06370889     0.00600
H377        H  0.61895997  0.20172675  0.08423158     0.15100
H378        H  0.54087664  0.23365430  0.17447769     0.14900
C379        C  0.54809021  0.29462518  0.88445040     0.86700
C380        C  0.50439263  0.28459528  0.91063493    -0.53500
C381        C  0.50727484  0.25677419  0.92988741     0.09700
C382        C  0.55413774  0.24162918  0.92083065     0.20600
C383        C  0.59073604  0.29528169  0.91319788    -0.54200
C384        C  0.59389729  0.26763264  0.93186037     0.09800
C385        C  0.55354856  0.26567745  0.85703900    -0.53800
C386        C  0.55631994  0.23781158  0.87591970     0.10300
H387        H  0.97555373  0.29962635  0.91581486     0.14800
H388        H  0.55781105  0.21908309  0.93586039     0.00600
H389        H  0.61343696  0.31611811  0.92232587     0.15100
H390        H  0.55312454  0.26706660  0.82536516     0.14900
N391        N  0.55379116  0.42502933  0.24868649    -0.27000
N392        N  0.55697151  0.43956119  0.21484772    -0.34900
C393        C  0.55507980  0.41751531  0.18552377     0.01300
C394        C  0.55077330  0.38757617  0.20167919     0.07300
C395        C  0.54977312  0.39344495  0.24183188    -0.05800
H396        H  0.55592106  0.42304189  0.15476902     0.08000
H397        H  0.54694217  0.37601116  0.26454288     0.09200
Cu398      Cu  0.56371294  0.48882884  0.21053648     0.44200
Cu399      Cu  0.55589489  0.44869208  0.30278620     0.42000
Cu400      Cu  0.57975888  0.03446004  0.30203539     0.43900
N401        N  0.56991268  0.03831289  0.21427985    -0.34400
N402        N  0.57711502  0.05502914  0.24739804    -0.28700
C403        C  0.57780265  0.08617395  0.23977195    -0.04800
C404        C  0.56998926  0.08919100  0.20006851     0.07400
C405        C  0.56534055  0.05835424  0.18486382     0.01200
H406        H  0.58128928  0.10513164  0.26179482     0.08900
H407        H  0.55827999  0.05095452  0.15470673     0.08000
N408        N  0.57184895  0.00842923  0.35299705    -0.35900
N409        N  0.56206705  0.47731109  0.35318027    -0.28100
C410        C  0.55594549  0.46812234  0.39045630    -0.03300
C411        C  0.56277993  0.49471347  0.41528313     0.05300
C412        C  0.57255802  0.01981551  0.39020484     0.03400
H413        H  0.54543852  0.44393860  0.39843022     0.08500
H414        H  0.57910583  0.04473103  0.39825812     0.07300
N415        N  0.52123690  0.44620890  0.75294768    -0.27000
N416        N  0.52986510  0.46294074  0.78587726    -0.34900
C417        C  0.53441277  0.44285362  0.81525822     0.01300
C418        C  0.52809953  0.41200972  0.80018623     0.07300
C419        C  0.51948156  0.41505018  0.76064416    -0.05800
H420        H  0.54243009  0.45019296  0.84529239     0.08000
H421        H  0.51466259  0.39605878  0.73874057     0.09200
Cu422      Cu  0.53687610  0.01243927  0.78927571     0.44200
Cu423      Cu  0.51826073  0.46652780  0.69830353     0.42000
Cu424      Cu  0.54637383  0.05190196  0.69652853     0.43900
N425        N  0.54299284  0.06167100  0.78437500    -0.34400
N426        N  0.54720700  0.07599670  0.75041431    -0.28700
C427        C  0.55007484  0.10762533  0.75695005    -0.05000
C428        C  0.54701484  0.11368528  0.79697368     0.07400
C429        C  0.54287688  0.08387641  0.81342443     0.01200
H430        H  0.55322643  0.12494702  0.73411047     0.08900
H431        H  0.54053901  0.07860027  0.84424499     0.08000
N432        N  0.53829420  0.02292543  0.64643583    -0.35900
N433        N  0.52691972  0.49196335  0.64704061    -0.28100
C434        C  0.52490873  0.48027626  0.60996203    -0.03300
C435        C  0.53542973  0.00502403  0.58454266     0.05300
C436        C  0.54415065  0.03170379  0.60898383     0.03400
H437        H  0.51689293  0.45540736  0.60219616     0.08500
H438        H  0.55564323  0.05563826  0.60054746     0.07300
C439        C  0.55330098  0.47392036  0.52372836    -0.12000
C440        C  0.54075480  0.00258454  0.54106334     0.05000
C441        C  0.53556550  0.02845488  0.51655890    -0.07300
C442        C  0.54363168  0.02537371  0.47610236    -0.08100
C443        C  0.55653778  0.49679469  0.45874909    -0.02600
C444        C  0.56133666  0.47081815  0.48324501     0.04200
N445        N  0.57662211  0.44155937  0.46808877     0.66700
H446        H  0.55847999  0.45390439  0.54184232     0.15600
H447        H  0.03865631  0.04542700  0.45805076     0.15300
N448        N  0.02026344  0.05763764  0.53174693     0.74400
O449        O  0.61967953  0.44015802  0.45813742    -0.39000
O450        O  0.54963752  0.41620609  0.47112442    -0.39000
O451        O  0.04660575  0.08320442  0.52816574    -0.39700
O452        O  0.97744698  0.05863053  0.54261899    -0.39700
C453        C  0.57730909  0.17103222  0.80155731    -0.12000
C454        C  0.54884810  0.14536041  0.81729736     0.05000
C455        C  0.52334970  0.15041263  0.85236905    -0.07300
C456        C  0.52728629  0.18043667  0.87107304    -0.08100
C457        C  0.55586894  0.20609902  0.85550494    -0.02600
C458        C  0.58133526  0.20109838  0.82035783     0.04200
N459        N  0.61310419  0.22577407  0.80425869     0.66700
H460        H  0.59777928  0.16755247  0.77502503     0.15600
H461        H  0.00610909  0.18391856  0.89716670     0.15300
N462        N  0.99084105  0.12597157  0.86801153     0.74400
O463        O  0.65254693  0.23382620  0.82075055    -0.39000
O464        O  0.60545567  0.23567258  0.77051673    -0.39000
O465        O  0.99711471  0.11634103  0.90211575    -0.39700
O466        O  0.95189461  0.11802147  0.85069601    -0.39700
C467        C  0.57837131  0.35130656  0.86427150    -0.12000
C468        C  0.54301267  0.32531746  0.86196198     0.05000
C469        C  0.50317019  0.32824798  0.83731029    -0.07300
C470        C  0.49908332  0.35645158  0.81718311    -0.08100
C471        C  0.53373458  0.38232241  0.82105431    -0.02600
C472        C  0.57377771  0.37944772  0.84462185     0.04200
N473        N  0.61176478  0.40429200  0.84710784     0.66700
H474        H  0.61100544  0.35029379  0.88011451     0.15600
H475        H  0.46827922  0.35826408  0.79875801     0.15300
N476        N  0.46635103  0.30283906  0.83227779     0.74400
O477        O  0.61799320  0.42061611  0.87847077    -0.39000
O478        O  0.64368684  0.40609328  0.82089743    -0.39000
O479        O  0.42661575  0.30480250  0.84912454    -0.39700
O480        O  0.46923287  0.28305308  0.80419922    -0.39700
C481        C  0.56500449  0.32042229  0.12680544    -0.12000
C482        C  0.53806295  0.29473785  0.14396039     0.05000
C483        C  0.51492165  0.30002516  0.18014250    -0.07300
C484        C  0.52003682  0.33026164  0.19848905    -0.08100
C485        C  0.54697483  0.35591035  0.18119630    -0.02600
C486        C  0.56947630  0.35068633  0.14477580     0.04200
N487        N  0.59932489  0.37527297  0.12654044     0.66700
H488        H  0.58449750  0.31689199  0.09979489     0.15600
H489        H  0.00165042  0.33385890  0.22598525     0.15300
N490        N  0.98452312  0.27548407  0.19788022     0.74400
O491        O  0.64083802  0.38277213  0.13953079    -0.39000
O492        O  0.58782516  0.38510407  0.09363310    -0.39000
O493        O  0.49403699  0.26631797  0.23159970    -0.39700
O494        O  0.94430136  0.26692593  0.18297808    -0.39700
C495        C  0.59648068  0.14537346  0.18378213    -0.12000
C496        C  0.56335348  0.11872746  0.17909285     0.05000
C497        C  0.52404450  0.12060126  0.15435044    -0.07300
C498        C  0.51850865  0.14857759  0.13455852    -0.08100
C499        C  0.55222610  0.17544250  0.13795009    -0.02600
C500        C  0.59158160  0.17338178  0.16342864     0.04200
N501        N  0.62726146  0.19943587  0.16892914     0.66700
H502        H  0.62684113  0.14429096  0.20288626     0.15600
H503        H  0.98696865  0.14852857  0.11737561     0.15300
N504        N  0.98792105  0.09470414  0.15030806     0.74400
O505        O  0.62394301  0.21837654  0.19783243    -0.39000
O506        O  0.66688803  0.19874593  0.15151843    -0.39000
O507        O  0.95478852  0.09171522  0.17541723    -0.39700
O508        O  0.98437814  0.07846625  0.11870853    -0.39700
C509        C  0.81838148  0.22747401  0.01860851    -0.12000
C510        C  0.84757758  0.25196839  0.00108025     0.05000
C511        C  0.82591364  0.27683268  0.98355488    -0.07300
C512        C  0.77601583  0.27637664  0.98321684    -0.08100
C513        C  0.74684470  0.25177357  0.00059616    -0.02600
C514        C  0.76855416  0.22704516  0.01834611     0.04200
N515        N  0.74058650  0.20048252  0.03436902     0.66700
H516        H  0.83435424  0.20782135  0.03141889     0.15600
H517        H  0.75995804  0.29597712  0.97036180     0.15300
N518        N  0.85397538  0.30348826  0.96783847     0.74400
O519        O  0.71621852  0.18121101  0.01190040    -0.39000
O520        O  0.74516261  0.19395430  0.06994667    -0.39000
O521        O  0.84957234  0.31022064  0.93231088    -0.39700
O522        O  0.87778834  0.32281277  0.99061564    -0.39700
C523        C  0.69427792  0.75346380  0.00107360     0.03400
C524        C  0.66741498  0.74910403  0.03605074    -0.12800
C525        C  0.61887009  0.75469330  0.03710074     0.00900
C526        C  0.59929475  0.76697160  0.00375563    -0.11300
C527        C  0.62259988  0.76598945  0.96767769     0.03400
C528        C  0.67070152  0.76023364  0.96637295    -0.10700
H529        H  0.68423237  0.74211088  0.06249470     0.09000
H530        H  0.56387268  0.77463869  0.00438908     0.06500
H531        H  0.68958817  0.76081722  0.93857528     0.06300
C532        C  0.90001769  0.74967513  0.99993768     0.03400
C533        C  0.92353662  0.74195402  0.03424384    -0.12800
C534        C  0.97083901  0.73453628  0.03231190     0.00900
C535        C  0.99359027  0.73324833  0.99595984    -0.11300
C536        C  0.97456583  0.74661243  0.96302507     0.03400
C537        C  0.92657506  0.75363474  0.96474157    -0.10700
H538        H  0.90512928  0.74177977  0.06225799     0.09000
H539        H  0.52860553  0.72489614  0.99496629     0.06500
H540        H  0.90986306  0.76135538  0.93862801     0.06300
C541        C  0.54623703  0.70605054  0.11541494     0.86700
C542        C  0.50349195  0.70504983  0.08662585    -0.53500
C543        C  0.49998041  0.73266602  0.06791751     0.09700
C544        C  0.53920633  0.75890218  0.07897395     0.20600
C545        C  0.58981260  0.71644516  0.08930602    -0.54200
C546        C  0.58635226  0.74418578  0.07007001     0.09800
C547        C  0.54020020  0.73499399  0.14279532    -0.53800
C548        C  0.53703480  0.76282896  0.12385080     0.10300
H549        H  0.98062779  0.68424559  0.07788753     0.14800
H550        H  0.53507093  0.78127167  0.06369647     0.00600
H551        H  0.61899735  0.70172815  0.08417390     0.15100
H552        H  0.54094695  0.73364762  0.17444841     0.14900
C553        C  0.54802201  0.79462798  0.88442505     0.86700
C554        C  0.50433586  0.78458903  0.91061473    -0.53500
C555        C  0.50723281  0.75676899  0.92986383     0.09700
C556        C  0.55409883  0.74163017  0.92079507     0.20600
C557        C  0.59068220  0.79528689  0.91316108    -0.54200
C558        C  0.59385684  0.76763663  0.93181912     0.09800
C559        C  0.55348590  0.76568435  0.85700730    -0.53800
C560        C  0.55627209  0.73781728  0.87588254     0.10300
H561        H  0.97561250  0.79963648  0.91582702     0.14800
H562        H  0.55778148  0.71908370  0.93582140     0.00600
H563        H  0.61339913  0.81611611  0.92227440     0.15100
H564        H  0.55306021  0.76707708  0.82533422     0.14900
N565        N  0.55381758  0.92502614  0.24869388    -0.27000
N566        N  0.55700574  0.93956026  0.21485637    -0.34900
C567        C  0.55515041  0.91751539  0.18553115     0.01300
C568        C  0.55085669  0.88757494  0.20168408     0.07300
C569        C  0.54982940  0.89344209  0.24183663    -0.05800
H570        H  0.55599792  0.92304294  0.15477666     0.08000
H571        H  0.54699039  0.87600726  0.26454631     0.09200
Cu572      Cu  0.56368600  0.98883025  0.21054711     0.44200
Cu573      Cu  0.55584746  0.94868187  0.30279988     0.42000
Cu574      Cu  0.57987714  0.53447255  0.30200749     0.43900
N575        N  0.56998236  0.53831000  0.21425382    -0.34400
N576        N  0.57720129  0.55503380  0.24736441    -0.28700
C577        C  0.57789211  0.58617675  0.23972500    -0.04800
C578        C  0.57006408  0.58918454  0.20002089     0.07400
C579        C  0.56540938  0.55834321  0.18483013     0.01200
H580        H  0.58139288  0.60514048  0.26174005     0.08900
H581        H  0.55834467  0.55093345  0.15467758     0.08000
N582        N  0.57201077  0.50843915  0.35297288    -0.35900
N583        N  0.56193411  0.97729874  0.35320130    -0.28100
C584        C  0.55578502  0.96810968  0.39047539    -0.03300
C585        C  0.56257007  0.99470409  0.41530188     0.05300
C586        C  0.57276921  0.51982342  0.39018230     0.03400
H587        H  0.54529926  0.94392279  0.39844897     0.08500
H588        H  0.57934510  0.54473758  0.39823369     0.07300
N589        N  0.52100101  0.94620516  0.75295549    -0.27000
N590        N  0.52959378  0.96293810  0.78588861    -0.34900
C591        C  0.53413772  0.94285309  0.81527186     0.01300
C592        C  0.52786548  0.91200861  0.80019656     0.07300
C593        C  0.51926937  0.91504720  0.76065054    -0.05800
H594        H  0.54213594  0.95019518  0.84530811     0.08000
H595        H  0.51448967  0.89605627  0.73874324     0.09200
Cu596      Cu  0.53714666  0.51244318  0.78926964     0.44200
Cu597      Cu  0.51805110  0.96652697  0.69831336     0.42000
Cu598      Cu  0.54661048  0.55189658  0.69652358     0.43900
N599        N  0.54320036  0.56167546  0.78436481    -0.34400
N600        N  0.54740229  0.57599716  0.75040120    -0.28700
C601        C  0.55021691  0.60762551  0.75692737    -0.05000
C602        C  0.54713389  0.61368997  0.79694816     0.07400
C603        C  0.54303857  0.58388408  0.81340767     0.01200
H604        H  0.55334577  0.62494317  0.73408273     0.08900
H605        H  0.54069608  0.57861299  0.84422960     0.08000
N606        N  0.53853968  0.52292400  0.64643053    -0.35900
N607        N  0.52669476  0.99196247  0.64705172    -0.28100
C608        C  0.52468208  0.98027028  0.60997584    -0.03300
C609        C  0.53568218  0.50503148  0.58453372     0.05300
C610        C  0.54441491  0.53170586  0.60898203     0.03400
H611        H  0.51668248  0.95539909  0.60221454     0.08500
H612        H  0.55592745  0.55563938  0.60055543     0.07300
C613        C  0.55311412  0.97392115  0.52374847    -0.12000
C614        C  0.54101100  0.50259738  0.54105294     0.05000
C615        C  0.53588900  0.52848246  0.51655520    -0.07300
C616        C  0.54394191  0.52539881  0.47609746    -0.08100
C617        C  0.55630319  0.99678458  0.45876433    -0.02600
C618        C  0.56116103  0.97082085  0.48326660     0.04200
N619        N  0.57652296  0.94158133  0.46811810     0.66700
H620        H  0.55834211  0.95391789  0.54186991     0.15600
H621        H  0.03829770  0.54538895  0.45804757     0.15300
N622        N  0.01985510  0.55758775  0.53174389     0.74400
O623        O  0.61958508  0.94023037  0.45815067    -0.39000
O624        O  0.54960418  0.91620076  0.47116672    -0.39000
O625        O  0.04611468  0.58318600  0.52813637    -0.39700
O626        O  0.97704040  0.55852161  0.54264945    -0.39700
C627        C  0.57734388  0.67105204  0.80152146    -0.12000
C628        C  0.54891186  0.64536732  0.81726143     0.05000
C629        C  0.52339107  0.65040889  0.85232417    -0.07300
C630        C  0.52728912  0.68043376  0.87102677    -0.08100
C631        C  0.55584905  0.70610814  0.85546226    -0.02600
C632        C  0.58132632  0.70112005  0.82031703     0.04200
N633        N  0.61306289  0.72581132  0.80421409     0.66700
H634        H  0.59782620  0.66758186  0.77499335     0.15600
H635        H  0.00611588  0.68393104  0.89721688     0.15300
N636        N  0.99078323  0.62598825  0.86806679     0.74400
O637        O  0.65250874  0.73387773  0.82069381    -0.39000
O638        O  0.60538895  0.73570726  0.77047552    -0.39000
O639        O  0.99707220  0.61634853  0.90216427    -0.39700
O640        O  0.95181461  0.61806337  0.85077295    -0.39700
C641        C  0.57819403  0.85134925  0.86431604    -0.12000
C642        C  0.54290570  0.82532103  0.86194786     0.05000
C643        C  0.50308304  0.82821829  0.83726225    -0.07300
C644        C  0.49895691  0.85641983  0.81714112    -0.08100
C645        C  0.53354165  0.88232515  0.82106103    -0.02600
C646        C  0.57355749  0.87948873  0.84467437     0.04200
N647        N  0.61147900  0.90437438  0.84722216     0.66700
H648        H  0.61079546  0.85037727  0.88020450     0.15600
H649        H  0.46817174  0.85820419  0.79868664     0.15300
N650        N  0.46632147  0.80277741  0.83218985     0.74400
O651        O  0.61762064  0.92067856  0.87860825    -0.39000
O652        O  0.64343618  0.90623673  0.82104226    -0.39000
O653        O  0.42659182  0.80466604  0.84907323    -0.39700
O654        O  0.46922318  0.78305140  0.80404893    -0.39700
C655        C  0.56509067  0.82042489  0.12680131    -0.12000
C656        C  0.53814416  0.79473977  0.14395107     0.05000
C657        C  0.51500558  0.80002445  0.18013483    -0.07300
C658        C  0.52012444  0.83025899  0.19848663    -0.08100
C659        C  0.54706501  0.85590914  0.18119862    -0.02600
C660        C  0.56956780  0.85068727  0.14477795     0.04200
N661        N  0.59942069  0.87527456  0.12654788     0.66700
H662        H  0.58458073  0.81689617  0.09978885     0.15600
H663        H  0.00156397  0.83386391  0.22598784     0.15300
N664        N  0.98444286  0.77548489  0.19789235     0.74400
O665        O  0.64093846  0.88276321  0.13953420    -0.39000
O666        O  0.58792065  0.88511339  0.09364465    -0.39000
O667        O  0.49411993  0.76630823  0.23158251    -0.39700
O668        O  0.94422770  0.76691517  0.18298529    -0.39700
C669        C  0.59649580  0.64538993  0.18378827    -0.12000
C670        C  0.56342865  0.61871715  0.17903197     0.05000
C671        C  0.52419122  0.62056031  0.15420539    -0.07300
C672        C  0.51864462  0.64853690  0.13441019    -0.08100
C673        C  0.55229413  0.67543578  0.13789281    -0.02600
C674        C  0.59159833  0.67339639  0.16342750     0.04200
N675        N  0.62723391  0.69946996  0.16897946     0.66700
H676        H  0.62680803  0.64432906  0.20294114     0.15600
H677        H  0.98673500  0.64861042  0.11758495     0.15300
N678        N  0.98770470  0.59477973  0.15055557     0.74400
O679        O  0.62392405  0.71833482  0.19796004    -0.39000
O680        O  0.66683847  0.69885753  0.15151603    -0.39000
O681        O  0.95463875  0.59185406  0.17572920    -0.39700
O682        O  0.98404624  0.57850084  0.11899115    -0.39700
C683        C  0.81836509  0.72744795  0.01853186    -0.12000
C684        C  0.84757213  0.75195062  0.00103096     0.05000
C685        C  0.82591852  0.77681972  0.98350543    -0.07300
C686        C  0.77602036  0.77636302  0.98314615    -0.08100
C687        C  0.74683990  0.75175524  0.00050606    -0.02600
C688        C  0.76853830  0.72701868  0.01824850     0.04200
N689        N  0.74055947  0.70044971  0.03424614     0.66700
H690        H  0.83432984  0.70779073  0.03133897     0.15600
H691        H  0.75996961  0.79596851  0.97029627     0.15300
N692        N  0.85398997  0.80348207  0.96781477     0.74400
O693        O  0.71619401  0.68119200  0.01175907    -0.39000
O694        O  0.74511839  0.69390388  0.06981993    -0.39000
O695        O  0.84961188  0.81022717  0.93228881    -0.39700
O696        O  0.87778719  0.82279869  0.99061167    -0.39700
loop_ 
_geom_bond_atom_site_label_1 
_geom_bond_atom_site_label_2 
_geom_bond_distance 
_geom_bond_site_symmetry_2 
_ccdc_geom_bond_type 
C1            C2   1.415       .  A
C1            C6   1.410   1_554  A
C1          C165   1.487       .  S
C2            C3   1.407       .  A
C2            H7   1.082       .  S
C3            C4   1.400       .  A
C3           C24   1.496       .  S
C4            C5   1.392   1_554  A
C4            H8   1.076       .  S
C5            C6   1.397       .  A
C5           C36   1.478       .  S
C6            H9   1.084       .  S
C10          C11   1.409   1_556  A
C10          C15   1.416       .  A
C10         C162   1.487   1_556  S
C11          C12   1.396       .  A
C11          H16   1.084       .  S
C12          C13   1.394   1_554  A
C12         C369   1.478       .  S
C13          C14   1.402       .  A
C13         H365   1.077       .  S
C14          C15   1.409       .  A
C14         C381   1.500       .  S
C15          H18   1.082       .  S
H17         C361   1.077   1_455  S
C19          C20   1.554       .  S
C19          C25   1.541       .  S
C19          C23   1.548       .  S
C19         C151   1.546       .  S
C20          C21   1.358   1_455  D
C20         H375   1.076   1_455  S
C21         C360   1.478       .  S
C21          C22   1.533   1_655  S
C22          C26   1.537       .  S
C22          C24   1.541       .  S
C22          H28   1.108       .  S
C23          C24   1.371       .  D
C23          H29   1.085       .  S
C25          C26   1.369       .  D
C25          H30   1.083       .  S
C26         C134   1.495       .  S
H27         C368   1.077       .  S
C31          C32   1.549       .  S
C31          C37   1.539       .  S
C31          C35   1.552       .  S
C31         C120   1.544       .  S
C32          C33   1.372       .  D
C32         H387   1.085   1_455  S
C33         C362   1.500   1_455  S
C33          C34   1.543       .  S
C34          C38   1.538       .  S
C34          C36   1.536       .  S
C34          H40   1.108       .  S
C35          C36   1.357       .  D
C35          H41   1.080       .  S
C37          C38   1.367       .  D
C37          H42   1.084       .  S
C38         C109   1.493       .  S
H39         C380   1.085       .  S
N43          N44   1.321       .  A
N43          C47   1.345       .  A
N43         Cu51   2.074       .  S
N44          C45   1.347       .  A
N44         Cu50   2.084       .  S
C45          C46   1.390       .  A
C45          H48   1.081       .  S
C46          C47   1.386       .  A
C46         C137   1.489       .  S
C47          H49   1.082       .  S
Cu50        N227   2.085       .  S
Cu51         N61   2.074       .  S
Cu52         N54   2.083       .  S
Cu52         N60   2.083       .  S
N53          N54   1.323       .  A
N53          C57   1.346       .  A
N53        Cu224   2.085   1_545  S
N54          C55   1.348       .  A
C55          C56   1.385       .  A
C55          H58   1.082       .  S
C56          C57   1.386       .  A
C56         C148   1.484       .  S
C57          H59   1.081       .  S
N60         N235   1.321   1_545  A
N60          C64   1.345       .  A
N61         N234   1.321       .  A
N61          C62   1.345       .  A
C62          C63   1.389       .  A
C62          H65   1.080       .  S
C63         C238   1.390       .  A
C63          C95   1.493       .  S
C64         C237   1.390   1_545  A
C64          H66   1.081       .  S
N67          N68   1.323       .  A
N67          C71   1.347       .  A
N67         Cu75   2.079       .  S
N68          C69   1.346       .  A
N68        Cu248   2.085       .  S
C69          C70   1.386       .  A
C69          H72   1.082       .  S
C70          C71   1.384       .  A
C70         C123   1.482       .  S
C71          H73   1.082       .  S
Cu74         N77   2.085       .  S
Cu74        N242   2.085   1_545  S
Cu75         N85   2.080       .  S
Cu76         N78   2.076       .  S
Cu76         N84   2.077       .  S
N77          N78   1.322       .  A
N77          C81   1.347       .  A
N78          C79   1.345       .  A
C79          C80   1.386       .  A
C79          H82   1.082       .  S
C80          C81   1.389       .  A
C80         C106   1.488       .  S
C81          H83   1.081       .  S
N84         N259   1.321   1_545  A
N84          C88   1.345       .  A
N85         N258   1.321       .  A
N85          C86   1.345       .  A
C86         C261   1.389       .  A
C86          H89   1.082       .  S
C87          C88   1.389       .  A
C87         C260   1.389   1_545  A
C87          C92   1.492       .  S
C88          H90   1.080       .  S
C91          C96   1.403       .  A
C91         C266   1.405       .  A
C91          H98   1.083       .  S
C92          C93   1.414       .  A
C92         C265   1.405   1_545  A
C93          C94   1.402       .  A
C93         N448   1.430       .  S
C94         C269   1.406   1_545  A
C94         H447   1.082       .  S
C95          C96   1.415       .  A
C95         C268   1.406       .  A
C96          N97   1.429       .  S
N97         O101   1.262       .  A
N97         O102   1.262       .  A
H99         C442   1.082       .  S
N100        C441   1.430       .  S
N100        O104   1.262       .  A
N100        O103   1.262       .  A
C105        C106   1.406       .  A
C105        C110   1.404       .  A
C105        H112   1.083       .  S
C106        C107   1.412       .  A
C107        C108   1.401       .  A
C107        N462   1.430   1_455  S
C108        C109   1.405       .  A
C108        H461   1.083       .  S
C109        C110   1.414       .  A
C110        N111   1.430       .  S
N111        O115   1.262       .  A
N111        O116   1.262       .  A
H113        C456   1.083       .  S
N114        C455   1.430       .  S
N114        O118   1.262       .  A
N114        O117   1.262       .  A
C119        C120   1.414       .  A
C119        C124   1.399       .  A
C119        H126   1.073       .  S
C120        C121   1.422       .  A
C121        C122   1.407   1_455  A
C121        N128   1.430   1_455  S
C122        C123   1.401   1_655  A
C122        H127   1.083       .  S
C123        C124   1.404       .  A
C124        N125   1.430       .  S
N125        O129   1.262       .  A
N125        O130   1.262       .  A
N128        O132   1.262       .  A
N128        O131   1.262       .  A
C133        C134   1.406       .  A
C133        C138   1.400       .  A
C133        H140   1.083       .  S
C134        C135   1.414       .  A
C135        C136   1.404       .  A
C135        N490   1.430   1_455  S
C136        C137   1.406       .  A
C136        H489   1.083       .  S
C137        C138   1.412       .  A
C138        N139   1.429       .  S
N139        O143   1.262       .  A
N139        O144   1.262       .  A
H141        C484   1.083       .  S
N142        C483   1.430       .  S
N142        O146   1.262       .  A
N142        O493   1.262       .  A
O145        N490   1.262       .  A
C147        C148   1.402       .  A
C147        C152   1.408       .  A
C147        H154   1.083       .  S
C148        C149   1.405       .  A
C149        C150   1.400       .  A
C149        N504   1.430   1_455  S
C150        C151   1.415       .  A
C150        H503   1.067   1_455  S
C151        C152   1.422       .  A
C152        N153   1.430       .  S
N153        O157   1.262       .  A
N153        O158   1.262       .  A
H155        C498   1.068       .  S
N156        C497   1.430       .  S
N156        O160   1.262       .  A
N156        O159   1.262       .  A
C161        C162   1.406       .  A
C161        C166   1.400       .  A
C161        H168   1.084       .  S
C162        C163   1.411   1_554  A
C163        C164   1.402       .  A
C163        N170   1.431       .  S
C164        C165   1.407   1_556  A
C164        H169   1.084       .  S
C165        C166   1.411       .  A
C166        N167   1.431       .  S
N167        O171   1.262       .  A
N167        O172   1.262       .  A
N170        O174   1.262       .  A
N170        O173   1.262       .  A
C175        C176   1.415       .  A
C175        C180   1.410   1_554  A
C175        C339   1.487       .  S
C176        C177   1.407       .  A
C176        H181   1.082       .  S
C177        C178   1.400       .  A
C177        C198   1.496       .  S
C178        C179   1.392   1_554  A
C178        H182   1.076       .  S
C179        C180   1.397       .  A
C179        C210   1.478       .  S
C180        H183   1.084       .  S
C184        C185   1.409   1_556  A
C184        C189   1.416       .  A
C184        C336   1.487   1_556  S
C185        C186   1.396       .  A
C185        H190   1.084       .  S
C186        C187   1.394   1_554  A
C186        C543   1.478       .  S
C187        C188   1.402       .  A
C187        H539   1.077       .  S
C188        C189   1.409       .  A
C188        C555   1.500       .  S
C189        H192   1.082       .  S
H191        C535   1.077   1_455  S
C193        C194   1.554       .  S
C193        C199   1.541       .  S
C193        C197   1.548       .  S
C193        C325   1.546       .  S
C194        C195   1.358   1_455  D
C194        H549   1.077   1_455  S
C195        C534   1.478       .  S
C195        C196   1.533   1_655  S
C196        C200   1.537       .  S
C196        C198   1.541       .  S
C196        H202   1.108       .  S
C197        C198   1.371       .  D
C197        H203   1.085       .  S
C199        C200   1.369       .  D
C199        H204   1.083       .  S
C200        C308   1.495       .  S
H201        C542   1.076       .  S
C205        C206   1.549       .  S
C205        C211   1.539       .  S
C205        C209   1.552       .  S
C205        C294   1.544       .  S
C206        C207   1.372       .  D
C206        H561   1.085   1_455  S
C207        C536   1.500   1_455  S
C207        C208   1.543       .  S
C208        C212   1.538       .  S
C208        C210   1.536       .  S
C208        H214   1.108       .  S
C209        C210   1.357       .  D
C209        H215   1.080       .  S
C211        C212   1.367       .  D
C211        H216   1.084       .  S
C212        C283   1.493       .  S
H213        C554   1.085       .  S
N217        N218   1.321       .  A
N217        C221   1.345       .  A
N217       Cu225   2.074       .  S
N218        C219   1.347       .  A
N218       Cu224   2.084       .  S
C219        C220   1.390       .  A
C219        H222   1.081       .  S
C220        C221   1.386       .  A
C220        C311   1.489       .  S
C221        H223   1.082       .  S
Cu225       N235   2.074       .  S
Cu226       N228   2.083       .  S
Cu226       N234   2.083       .  S
N227        N228   1.323       .  A
N227        C231   1.346       .  A
N228        C229   1.348       .  A
C229        C230   1.385       .  A
C229        H232   1.082       .  S
C230        C231   1.386       .  A
C230        C322   1.484       .  S
C231        H233   1.081       .  S
N234        C238   1.345       .  A
N235        C236   1.345       .  A
C236        C237   1.389       .  A
C236        H239   1.080       .  S
C237        C269   1.493       .  S
C238        H240   1.081       .  S
N241        N242   1.323       .  A
N241        C245   1.347       .  A
N241       Cu249   2.079       .  S
N242        C243   1.346       .  A
C243        C244   1.386       .  A
C243        H246   1.082       .  S
C244        C245   1.384       .  A
C244        C297   1.482       .  S
C245        H247   1.082       .  S
Cu248       N251   2.085       .  S
Cu249       N259   2.080       .  S
Cu250       N252   2.077       .  S
Cu250       N258   2.077       .  S
N251        N252   1.322       .  A
N251        C255   1.347       .  A
N252        C253   1.345       .  A
C253        C254   1.386       .  A
C253        H256   1.082       .  S
C254        C255   1.389       .  A
C254        C280   1.488       .  S
C255        H257   1.081       .  S
N258        C262   1.345       .  A
N259        C260   1.345       .  A
C260        H263   1.082       .  S
C261        C262   1.389       .  A
C261        C266   1.492       .  S
C262        H264   1.080       .  S
C265        C270   1.403       .  A
C265        H272   1.083       .  S
C266        C267   1.414       .  A
C267        C268   1.402       .  A
C267        N622   1.430       .  S
C268        H621   1.082       .  S
C269        C270   1.415       .  A
C270        N271   1.429       .  S
N271        O275   1.262       .  A
N271        O276   1.262       .  A
H273        C616   1.082       .  S
N274        C615   1.430       .  S
N274        O278   1.262       .  A
N274        O277   1.262       .  A
C279        C280   1.406       .  A
C279        C284   1.404       .  A
C279        H286   1.083       .  S
C280        C281   1.412       .  A
C281        C282   1.401       .  A
C281        N636   1.430   1_455  S
C282        C283   1.405       .  A
C282        H635   1.083       .  S
C283        C284   1.414       .  A
C284        N285   1.430       .  S
N285        O289   1.262       .  A
N285        O290   1.262       .  A
H287        C630   1.083       .  S
N288        C629   1.430       .  S
N288        O292   1.262       .  A
N288        O291   1.262       .  A
C293        C294   1.414       .  A
C293        C298   1.399       .  A
C293        H300   1.073       .  S
C294        C295   1.422       .  A
C295        C296   1.407   1_455  A
C295        N302   1.430   1_455  S
C296        C297   1.401   1_655  A
C296        H301   1.083       .  S
C297        C298   1.404       .  A
C298        N299   1.430       .  S
N299        O303   1.262       .  A
N299        O304   1.262       .  A
N302        O306   1.262       .  A
N302        O305   1.262       .  A
C307        C308   1.406       .  A
C307        C312   1.400       .  A
C307        H314   1.083       .  S
C308        C309   1.414       .  A
C309        C310   1.404       .  A
C309        N664   1.430   1_455  S
C310        C311   1.406       .  A
C310        H663   1.083       .  S
C311        C312   1.412       .  A
C312        N313   1.429       .  S
N313        O317   1.262       .  A
N313        O318   1.262       .  A
H315        C658   1.083       .  S
N316        C657   1.430       .  S
N316        O320   1.262       .  A
N316        O667   1.262       .  A
O319        N664   1.262       .  A
C321        C322   1.402       .  A
C321        C326   1.407       .  A
C321        H328   1.083       .  S
C322        C323   1.405       .  A
C323        C324   1.400       .  A
C323        N678   1.430   1_455  S
C324        C325   1.415       .  A
C324        H677   1.068   1_455  S
C325        C326   1.422       .  A
C326        N327   1.430       .  S
N327        O331   1.262       .  A
N327        O332   1.262       .  A
H329        C672   1.067       .  S
N330        C671   1.430       .  S
N330        O334   1.262       .  A
N330        O333   1.262       .  A
C335        C336   1.406       .  A
C335        C340   1.400       .  A
C335        H342   1.084       .  S
C336        C337   1.411   1_554  A
C337        C338   1.402       .  A
C337        N344   1.431       .  S
C338        C339   1.407   1_556  A
C338        H343   1.084       .  S
C339        C340   1.411       .  A
C340        N341   1.431       .  S
N341        O345   1.262       .  A
N341        O346   1.262       .  A
N344        O348   1.262       .  A
N344        O347   1.262       .  A
C349        C350   1.415       .  A
C349        C354   1.410   1_554  A
C349        C513   1.487       .  S
C350        C351   1.407       .  A
C350        H355   1.082       .  S
C351        C352   1.400       .  A
C351        C372   1.496       .  S
C352        C353   1.392   1_554  A
C352        H356   1.076       .  S
C353        C354   1.397       .  A
C353        C384   1.478       .  S
C354        H357   1.084       .  S
C358        C359   1.409   1_556  A
C358        C363   1.416       .  A
C358        C510   1.487   1_556  S
C359        C360   1.396       .  A
C359        H364   1.084       .  S
C360        C361   1.394   1_554  A
C361        C362   1.402       .  A
C362        C363   1.409       .  A
C363        H366   1.082       .  S
C367        C368   1.554       .  S
C367        C373   1.541       .  S
C367        C371   1.548       .  S
C367        C499   1.546       .  S
C368        C369   1.358       .  D
C369        C370   1.533       .  S
C370        C374   1.537       .  S
C370        C372   1.541       .  S
C370        H376   1.108       .  S
C371        C372   1.371       .  D
C371        H377   1.085       .  S
C373        C374   1.369       .  D
C373        H378   1.083       .  S
C374        C482   1.495       .  S
C379        C380   1.549       .  S
C379        C385   1.539       .  S
C379        C383   1.552       .  S
C379        C468   1.544       .  S
C380        C381   1.372       .  D
C381        C382   1.543       .  S
C382        C386   1.538       .  S
C382        C384   1.536       .  S
C382        H388   1.108       .  S
C383        C384   1.357       .  D
C383        H389   1.080       .  S
C385        C386   1.367       .  D
C385        H390   1.084       .  S
C386        C457   1.493       .  S
N391        N392   1.321       .  A
N391        C395   1.345       .  A
N391       Cu399   2.074       .  S
N392        C393   1.347       .  A
N392       Cu398   2.084       .  S
C393        C394   1.390       .  A
C393        H396   1.081       .  S
C394        C395   1.386       .  A
C394        C485   1.489       .  S
C395        H397   1.082       .  S
Cu398       N575   2.085       .  S
Cu399       N409   2.074       .  S
Cu400       N402   2.083       .  S
Cu400       N408   2.083       .  S
N401        N402   1.323       .  A
N401        C405   1.346       .  A
N401       Cu572   2.085   1_545  S
N402        C403   1.348       .  A
C403        C404   1.385       .  A
C403        H406   1.082       .  S
C404        C405   1.386       .  A
C404        C496   1.484       .  S
C405        H407   1.081       .  S
N408        N583   1.321   1_545  A
N408        C412   1.345       .  A
N409        N582   1.321       .  A
N409        C410   1.345       .  A
C410        C411   1.389       .  A
C410        H413   1.080       .  S
C411        C586   1.390       .  A
C411        C443   1.493       .  S
C412        C585   1.390   1_545  A
C412        H414   1.081       .  S
N415        N416   1.323       .  A
N415        C419   1.347       .  A
N415       Cu423   2.079       .  S
N416        C417   1.346       .  A
N416       Cu596   2.085       .  S
C417        C418   1.386       .  A
C417        H420   1.082       .  S
C418        C419   1.384       .  A
C418        C471   1.482       .  S
C419        H421   1.082       .  S
Cu422       N590   2.085   1_545  S
Cu422       N425   2.085       .  S
Cu423       N433   2.080       .  S
Cu424       N426   2.077       .  S
Cu424       N432   2.077       .  S
N425        N426   1.322       .  A
N425        C429   1.347       .  A
N426        C427   1.345       .  A
C427        C428   1.386       .  A
C427        H430   1.082       .  S
C428        C429   1.389       .  A
C428        C454   1.488       .  S
C429        H431   1.081       .  S
N432        N607   1.321   1_545  A
N432        C436   1.345       .  A
N433        N606   1.321       .  A
N433        C434   1.345       .  A
C434        C609   1.389       .  A
C434        H437   1.082       .  S
C435        C608   1.389   1_545  A
C435        C436   1.389       .  A
C435        C440   1.492       .  S
C436        H438   1.080       .  S
C439        C614   1.405       .  A
C439        C444   1.403       .  A
C439        H446   1.083       .  S
C440        C613   1.405   1_545  A
C440        C441   1.414       .  A
C441        C442   1.402       .  A
C442        C617   1.406   1_545  A
C443        C616   1.406       .  A
C443        C444   1.415       .  A
C444        N445   1.429       .  S
N445        O449   1.262       .  A
N445        O450   1.262       .  A
N448        O452   1.262   1_455  A
N448        O451   1.262       .  A
C453        C454   1.406       .  A
C453        C458   1.404       .  A
C453        H460   1.083       .  S
C454        C455   1.412       .  A
C455        C456   1.401       .  A
C456        C457   1.405       .  A
C457        C458   1.414       .  A
C458        N459   1.430       .  S
N459        O463   1.262       .  A
N459        O464   1.262       .  A
N462        O466   1.262       .  A
N462        O465   1.262       .  A
C467        C468   1.414       .  A
C467        C472   1.399       .  A
C467        H474   1.073       .  S
C468        C469   1.422       .  A
C469        C470   1.407       .  A
C469        N476   1.430       .  S
C470        C471   1.401       .  A
C470        H475   1.083       .  S
C471        C472   1.404       .  A
C472        N473   1.430       .  S
N473        O477   1.262       .  A
N473        O478   1.262       .  A
N476        O480   1.262       .  A
N476        O479   1.262       .  A
C481        C482   1.406       .  A
C481        C486   1.400       .  A
C481        H488   1.083       .  S
C482        C483   1.414       .  A
C483        C484   1.404       .  A
C484        C485   1.406       .  A
C485        C486   1.412       .  A
C486        N487   1.429       .  S
N487        O491   1.262       .  A
N487        O492   1.262       .  A
N490        O494   1.262       .  A
C495        C496   1.402       .  A
C495        C500   1.407       .  A
C495        H502   1.083       .  S
C496        C497   1.405       .  A
C497        C498   1.400       .  A
C498        C499   1.415       .  A
C499        C500   1.422       .  A
C500        N501   1.430       .  S
N501        O505   1.262       .  A
N501        O506   1.262       .  A
N504        O508   1.262       .  A
N504        O507   1.262       .  A
C509        C510   1.406       .  A
C509        C514   1.400       .  A
C509        H516   1.084       .  S
C510        C511   1.411   1_554  A
C511        C512   1.402       .  A
C511        N518   1.431       .  S
C512        C513   1.407   1_556  A
C512        H517   1.084       .  S
C513        C514   1.411       .  A
C514        N515   1.431       .  S
N515        O519   1.262       .  A
N515        O520   1.262       .  A
N518        O522   1.262       .  A
N518        O521   1.262       .  A
C523        C524   1.415       .  A
C523        C528   1.410   1_554  A
C523        C687   1.487       .  S
C524        C525   1.407       .  A
C524        H529   1.082       .  S
C525        C526   1.400       .  A
C525        C546   1.496       .  S
C526        C527   1.392   1_554  A
C526        H530   1.076       .  S
C527        C528   1.397       .  A
C527        C558   1.478       .  S
C528        H531   1.084       .  S
C532        C533   1.409   1_556  A
C532        C537   1.416       .  A
C532        C684   1.487   1_556  S
C533        C534   1.396       .  A
C533        H538   1.084       .  S
C534        C535   1.394   1_554  A
C535        C536   1.402       .  A
C536        C537   1.409       .  A
C537        H540   1.082       .  S
C541        C542   1.554       .  S
C541        C547   1.541       .  S
C541        C545   1.548       .  S
C541        C673   1.546       .  S
C542        C543   1.358       .  D
C543        C544   1.533       .  S
C544        C548   1.537       .  S
C544        C546   1.541       .  S
C544        H550   1.108       .  S
C545        C546   1.371       .  D
C545        H551   1.085       .  S
C547        C548   1.369       .  D
C547        H552   1.083       .  S
C548        C656   1.495       .  S
C553        C554   1.549       .  S
C553        C559   1.539       .  S
C553        C557   1.552       .  S
C553        C642   1.544       .  S
C554        C555   1.372       .  D
C555        C556   1.543       .  S
C556        C560   1.538       .  S
C556        C558   1.536       .  S
C556        H562   1.108       .  S
C557        C558   1.357       .  D
C557        H563   1.080       .  S
C559        C560   1.367       .  D
C559        H564   1.084       .  S
C560        C631   1.493       .  S
N565        N566   1.321       .  A
N565        C569   1.345       .  A
N565       Cu573   2.074       .  S
N566        C567   1.347       .  A
N566       Cu572   2.084       .  S
C567        C568   1.390       .  A
C567        H570   1.081       .  S
C568        C569   1.386       .  A
C568        C659   1.489       .  S
C569        H571   1.082       .  S
Cu573       N583   2.074       .  S
Cu574       N576   2.083       .  S
Cu574       N582   2.083       .  S
N575        N576   1.323       .  A
N575        C579   1.346       .  A
N576        C577   1.348       .  A
C577        C578   1.385       .  A
C577        H580   1.082       .  S
C578        C579   1.386       .  A
C578        C670   1.484       .  S
C579        H581   1.081       .  S
N582        C586   1.345       .  A
N583        C584   1.345       .  A
C584        C585   1.389       .  A
C584        H587   1.080       .  S
C585        C617   1.493       .  S
C586        H588   1.081       .  S
N589        N590   1.323       .  A
N589        C593   1.347       .  A
N589       Cu597   2.079       .  S
N590        C591   1.346       .  A
C591        C592   1.386       .  A
C591        H594   1.082       .  S
C592        C593   1.384       .  A
C592        C645   1.482       .  S
C593        H595   1.082       .  S
Cu596       N599   2.085       .  S
Cu597       N607   2.080       .  S
Cu598       N600   2.076       .  S
Cu598       N606   2.077       .  S
N599        N600   1.322       .  A
N599        C603   1.347       .  A
N600        C601   1.345       .  A
C601        C602   1.386       .  A
C601        H604   1.082       .  S
C602        C603   1.389       .  A
C602        C628   1.488       .  S
C603        H605   1.081       .  S
N606        C610   1.345       .  A
N607        C608   1.345       .  A
C608        H611   1.082       .  S
C609        C610   1.389       .  A
C609        C614   1.492       .  S
C610        H612   1.080       .  S
C613        C618   1.403       .  A
C613        H620   1.083       .  S
C614        C615   1.414       .  A
C615        C616   1.402       .  A
C617        C618   1.415       .  A
C618        N619   1.429       .  S
N619        O623   1.262       .  A
N619        O624   1.262       .  A
N622        O626   1.262   1_455  A
N622        O625   1.262       .  A
C627        C628   1.406       .  A
C627        C632   1.404       .  A
C627        H634   1.083       .  S
C628        C629   1.412       .  A
C629        C630   1.401       .  A
C630        C631   1.405       .  A
C631        C632   1.414       .  A
C632        N633   1.430       .  S
N633        O637   1.262       .  A
N633        O638   1.262       .  A
N636        O640   1.262       .  A
N636        O639   1.262       .  A
C641        C642   1.414       .  A
C641        C646   1.399       .  A
C641        H648   1.073       .  S
C642        C643   1.422       .  A
C643        C644   1.407       .  A
C643        N650   1.430       .  S
C644        C645   1.401       .  A
C644        H649   1.083       .  S
C645        C646   1.404       .  A
C646        N647   1.430       .  S
N647        O651   1.262       .  A
N647        O652   1.262       .  A
N650        O654   1.262       .  A
N650        O653   1.262       .  A
C655        C656   1.406       .  A
C655        C660   1.400       .  A
C655        H662   1.083       .  S
C656        C657   1.414       .  A
C657        C658   1.404       .  A
C658        C659   1.406       .  A
C659        C660   1.412       .  A
C660        N661   1.429       .  S
N661        O665   1.262       .  A
N661        O666   1.262       .  A
N664        O668   1.262       .  A
C669        C670   1.402       .  A
C669        C674   1.408       .  A
C669        H676   1.083       .  S
C670        C671   1.405       .  A
C671        C672   1.400       .  A
C672        C673   1.415       .  A
C673        C674   1.422       .  A
C674        N675   1.430       .  S
N675        O679   1.262       .  A
N675        O680   1.262       .  A
N678        O682   1.262       .  A
N678        O681   1.262       .  A
C683        C684   1.406       .  A
C683        C688   1.400       .  A
C683        H690   1.084       .  S
C684        C685   1.411   1_554  A
C685        C686   1.402       .  A
C685        N692   1.431       .  S
C686        C687   1.407   1_556  A
C686        H691   1.084       .  S
C687        C688   1.411       .  A
C688        N689   1.431       .  S
N689        O693   1.262       .  A
N689        O694   1.262       .  A
N692        O696   1.262       .  A
N692        O695   1.262       .  A
