geometry optimzed in LAMMPS
_audit_creation_date              2020-11-30 
_audit_creation_method            'lammps2cif' 
_symmetry_space_group_name_H-M    'P1' 
_symmetry_Int_Tables_number       1 
_symmetry_cell_setting            triclinic 
loop_ 
_symmetry_equiv_pos_as_xyz 
  x,y,z 
_cell_length_a                    33.57556146 
_cell_length_b                    32.7700057547221 
_cell_length_c                    32.757055079763546 
_cell_angle_alpha                 90.36140026512788 
_cell_angle_beta                  89.62783620008649 
_cell_angle_gamma                 90.59914194012687 
loop_ 
_atom_site_label 
_atom_site_type_symbol 
_atom_site_fract_x 
_atom_site_fract_y 
_atom_site_fract_z 
_atom_site_charge 
O1          O  0.60215191  0.00933630  0.54928538    -0.77300
O2          O  0.43488151  0.04980512  0.49985772    -0.77300
O3          O  0.52234204  0.06986579  0.45057469    -0.77400
O4          O  0.49012176  0.05514052  0.57710633    -0.77300
O5          O  0.47242438  0.03518771  0.42561485    -0.77400
O6          O  0.53579693  0.01400693  0.60203312    -0.77300
O7          O  0.41114031  0.03233290  0.55966850    -0.77300
O8          O  0.59032898  0.05813756  0.50493797    -0.77400
C9          C  0.61382304  0.04045921  0.52992366     1.12400
C10         C  0.40512661  0.04858662  0.52517233     1.12200
C11         C  0.49956263  0.06197158  0.42065181     1.12400
C12         C  0.51108597  0.04309469  0.60710232     1.12300
O13         O  0.50946379  0.93695255  0.56997013    -0.77300
O14         O  0.48619017  0.95319507  0.44237031    -0.77400
O15         O  0.59832638  0.98161780  0.47035775    -0.77300
O16         O  0.42806091  0.96441794  0.51785536    -0.77300
O17         O  0.41083398  0.98461693  0.45671466    -0.77400
O18         O  0.57753079  0.93581683  0.51531150    -0.77300
O19         O  0.46427224  0.97729279  0.59386333    -0.77300
O20         O  0.53560762  0.99030286  0.41726306    -0.77400
Co21       Co  0.55262526  0.97569209  0.55521027     1.51500
Co22       Co  0.46396858  0.99910276  0.47524166     1.51700
Co23       Co  0.55760197  0.02413151  0.46497424     1.51600
Co24       Co  0.46310446  0.01212521  0.54319127     1.51500
O25         O  0.51656683  0.00278097  0.50995108    -1.39300
C26         C  0.48801597  0.94833789  0.59984254     1.12300
C27         C  0.50824463  0.96348795  0.41228895     1.12400
C28         C  0.60293282  0.94841215  0.48876347     1.12300
C29         C  0.40101221  0.96694485  0.48976458     1.12300
O30         O  0.94841723  0.56869086  0.52562875    -0.77300
O31         O  0.96325514  0.40735035  0.48041239    -0.77300
O32         O  0.94165257  0.50894310  0.42633576    -0.77400
O33         O  0.94900542  0.45074417  0.56030360    -0.77300
O34         O  0.96570740  0.45104544  0.40725457    -0.77400
O35         O  0.96670918  0.50979157  0.58757032    -0.77300
O36         O  0.99188873  0.38433882  0.53603520    -0.77300
O37         O  0.96633544  0.58243764  0.46115932    -0.77400
C38         C  0.95006876  0.59290579  0.49526274     1.12400
C39         C  0.97122260  0.37706447  0.50427898     1.12200
C40         C  0.94371846  0.48101582  0.39968156     1.12400
C41         C  0.95149402  0.47439092  0.59118836     1.12300
O42         O  0.04712028  0.51634094  0.56401115    -0.77300
O43         O  0.03947477  0.48615447  0.41727027    -0.77400
O44         O  0.04606509  0.55638694  0.45946414    -0.77300
O45         O  0.04834660  0.42583254  0.49410110    -0.77300
O46         O  0.02949986  0.40233086  0.43422603    -0.77400
O47         O  0.02838323  0.58567947  0.51606824    -0.77300
O48         O  0.02891250  0.45285289  0.57594458    -0.77300
O49         O  0.00796329  0.53891706  0.38968892    -0.77400
Co50       Co  0.99728985  0.54108701  0.54436108     1.51500
Co51       Co  0.00300465  0.45041138  0.45510121     1.51700
Co52       Co  0.99409726  0.52930145  0.44593119     1.51600
Co53       Co  0.99690257  0.44207490  0.52476673     1.51500
O54         O  0.98946084  0.49822689  0.49738318    -1.39300
C55         C  0.04503568  0.48609327  0.58785435     1.12300
C56         C  0.02911925  0.50675770  0.38494099     1.12400
C57         C  0.04486715  0.58812914  0.48157121     1.12300
C58         C  0.04890507  0.39690346  0.46699889     1.12300
O59         O  0.40450727  0.54838537  0.00980053    -0.77300
O60         O  0.57136067  0.49731265  0.04326612    -0.77300
O61         O  0.48441132  0.44610444  0.06580406    -0.77400
O62         O  0.51822481  0.57314637  0.05050100    -0.77300
O63         O  0.53385711  0.42245124  0.02965124    -0.77400
O64         O  0.47223202  0.60056098  0.01176281    -0.76100
O65         O  0.59511083  0.55674256  0.02403367    -0.77300
O66         O  0.41714337  0.50213221  0.05659663    -0.77400
C67         C  0.39349078  0.52788142  0.04034259     1.12400
C68         C  0.60099668  0.52282031  0.04125993     1.12200
C69         C  0.50754398  0.41669119  0.05706886     1.12400
C70         C  0.49865857  0.60435036  0.03958518     1.12300
O71         O  0.49315637  0.56949045  0.93288602    -0.77300
O72         O  0.51732046  0.43847711  0.94855089    -0.77400
O73         O  0.40563904  0.46855512  0.98017235    -0.77300
O74         O  0.57537521  0.51475364  0.95688369    -0.77300
O75         O  0.59389640  0.45431278  0.97733218    -0.77400
O76         O  0.42340383  0.51541096  0.93487061    -0.77300
O77         O  0.54118375  0.59088635  0.97151063    -0.77300
O78         O  0.46820179  0.41431379  0.98667801    -0.77400
Co79       Co  0.45211122  0.55416439  0.97391857     1.51500
Co80       Co  0.54093688  0.47222896  0.99342639     1.51700
Co81       Co  0.44800538  0.46216504  0.02110814     1.51600
Co82       Co  0.54271775  0.53999167  0.00581177     1.51500
O83         O  0.48860064  0.50721284  0.99830835    -1.39300
C84         C  0.51636558  0.59832535  0.94385367     1.12300
C85         C  0.49518879  0.40864648  0.95974472     1.12400
C86         C  0.39871246  0.48828561  0.94815951     1.12300
C87         C  0.60295697  0.48739799  0.95926325     1.12300
C88         C  0.55987685  0.96998843  0.78120740     0.05900
C89         C  0.53102350  0.96463098  0.74962417    -0.10200
C90         C  0.54170927  0.94556334  0.71181419     0.03400
C91         C  0.58042802  0.93064040  0.70710352    -0.08700
C92         C  0.60818679  0.93492869  0.73846862     0.05900
C93         C  0.59808973  0.95473594  0.77483952    -0.08200
H94         H  0.50082120  0.97466704  0.75429537     0.11500
H95         H  0.58902847  0.91550553  0.67889204     0.09100
H96         H  0.62013991  0.95763281  0.79881260     0.08900
C97         C  0.76401992  0.82509338  0.77373890     0.83000
N98         N  0.75136609  0.80163795  0.80528753    -0.75300
C99         C  0.77336294  0.76953696  0.81733651     0.85500
N100        N  0.80749404  0.76020720  0.79717403    -0.75200
C101        C  0.82014886  0.78371073  0.76568405     0.85600
N102        N  0.79811696  0.81583095  0.75357816    -0.76900
C103        C  0.97222359  0.77499017  0.55639044     0.05900
C104        C  0.96741970  0.74103931  0.53013556    -0.10200
C105        C  0.94406485  0.70708022  0.54228826     0.03400
C106        C  0.92564325  0.70767214  0.58084796    -0.08700
C107        C  0.93021687  0.74163705  0.60664281     0.05900
C108        C  0.95297747  0.77524186  0.59422930    -0.08200
H109        H  0.98228303  0.74079218  0.50102525     0.11500
H110        H  0.90828075  0.68152305  0.59102241     0.09100
H111        H  0.95617798  0.80148014  0.61439067     0.08900
C112        C  0.78657359  0.55484905  0.94505815     0.05900
C113        C  0.75451810  0.52555364  0.94671338    -0.10200
C114        C  0.71457665  0.53706734  0.93683131     0.03400
C115        C  0.70827598  0.57687287  0.92300800    -0.08700
C116        C  0.73990073  0.60477392  0.91984988     0.05900
C117        C  0.77833412  0.59395672  0.93116124    -0.08200
H118        H  0.76050393  0.49456065  0.95558512     0.11500
H119        H  0.67852826  0.58630949  0.91476039     0.09100
H120        H  0.80224198  0.61642448  0.92900855     0.08900
C121        C  0.22860598  0.16310226  0.76640104     0.83000
N122        N  0.23722161  0.18476728  0.80069164    -0.75300
C123        C  0.21629680  0.21873591  0.81003375     0.85500
N124        N  0.18744800  0.23167869  0.78454554    -0.75200
C125        C  0.17888717  0.21007438  0.75023960     0.85600
N126        N  0.19980979  0.17605255  0.74089416    -0.76900
C127        C  0.28708834  0.44283620  0.93398831     0.05900
C128        C  0.28804761  0.40213879  0.92066154    -0.10200
C129        C  0.25491353  0.37635006  0.92601365     0.03400
C130        C  0.22047601  0.39038615  0.94548044    -0.08700
C131        C  0.21779656  0.43068249  0.95918449     0.05900
C132        C  0.25123825  0.45723426  0.95262502    -0.08200
H133        H  0.31463700  0.39046644  0.90588921     0.11500
H134        H  0.19515698  0.36985448  0.94922659     0.09100
H135        H  0.24934156  0.48854347  0.96138160     0.08900
C136        C  0.44087505  0.04652517  0.79429715     0.05900
C137        C  0.40112914  0.05313021  0.78446507    -0.10200
C138        C  0.38979988  0.06181450  0.74460564     0.03400
C139        C  0.41799681  0.06315086  0.71301983    -0.08700
C140        C  0.45847470  0.05653500  0.72067684     0.05900
C141        C  0.47018769  0.04903314  0.76214150    -0.08200
H142        H  0.37859377  0.05218222  0.80837942     0.11500
H143        H  0.40832513  0.06974401  0.68224022     0.09100
H144        H  0.50131316  0.04494693  0.76917092     0.08900
C145        C  0.06376100  0.28633548  0.52039355     0.05900
C146        C  0.08073242  0.28931214  0.55940214    -0.10200
C147        C  0.07819286  0.25639729  0.58642026     0.03400
C148        C  0.05816826  0.22066102  0.57520526    -0.08700
C149        C  0.04091243  0.21666942  0.53681705     0.05900
C150        C  0.04444594  0.24938056  0.50875303    -0.08200
H151        H  0.09576222  0.31723734  0.56878829     0.11500
H152        H  0.05633356  0.19546994  0.59655196     0.09100
H153        H  0.03247739  0.24642052  0.47836781     0.08900
O154        O  0.55626599  0.97916021  0.92471210    -0.77300
O155        O  0.54979290  0.01951117  0.09004947    -0.77300
O156        O  0.55921280  0.07813777  0.98730846    -0.77400
O157        O  0.56756146  0.94049646  0.04268127    -0.77300
O158        O  0.53849764  0.09483178  0.04765962    -0.77400
O159        O  0.54952198  0.91430630  0.98342953    -0.77300
O160        O  0.52861949  0.96022869  0.11394839    -0.77300
O161        O  0.53241786  0.04159152  0.91440117    -0.77400
C162        C  0.54912490  0.00892128  0.90091234     1.12400
C163        C  0.54513149  0.99486748  0.12072044     1.12200
C164        C  0.55651830  0.10514776  0.01497941     1.12400
C165        C  0.56618609  0.91045369  0.01773574     1.12300
O166        O  0.46712277  0.92736601  0.98607702    -0.77300
O167        O  0.46388195  0.07755127  0.02055356    -0.77400
O168        O  0.45588131  0.03380379  0.94734804    -0.77300
O169        O  0.46533343  0.99511707  0.07986731    -0.77300
O170        O  0.48001960  0.05610727  0.10361261    -0.77400
O171        O  0.47488399  0.97824184  0.91706458    -0.77300
O172        O  0.49013520  0.91582535  0.04746739    -0.77300
O173        O  0.48818426  0.10748242  0.96451705    -0.77400
Co174      Co  0.51229652  0.95410017  0.95735394     1.51500
Co175      Co  0.50558554  0.04214581  0.05143416     1.51700
Co176      Co  0.50764721  0.05269677  0.97078596     1.51600
Co177      Co  0.51773953  0.97087460  0.05702599     1.51500
O178        O  0.51824340  0.00122326  0.00117006    -1.39300
C179        C  0.47387037  0.90269801  0.01475498     1.12300
C180        C  0.47051628  0.11078693  0.99929522     1.12400
C181        C  0.45717044  0.01171752  0.91546042     1.12300
C182        C  0.46447678  0.02090743  0.11009274     1.12300
C183        C  0.26070140  0.75955835  0.81859630     0.83000
N184        N  0.26937581  0.78917636  0.79115824    -0.75300
C185        C  0.25211463  0.78814500  0.75387894     0.85500
N186        N  0.22674903  0.75728355  0.74379886    -0.75200
C187        C  0.21847809  0.72766904  0.77132775     0.85600
N188        N  0.23558626  0.72867411  0.80855837    -0.76900
C189        C  0.45771977  0.78326591  0.97651434     0.05900
C190        C  0.48424945  0.75038794  0.96739265    -0.10200
C191        C  0.46943277  0.71324497  0.94962739     0.03400
C192        C  0.42902953  0.71069432  0.93959148    -0.08700
C193        C  0.40366161  0.74338006  0.94731692     0.05900
C194        C  0.41769989  0.77883930  0.96613864    -0.08200
H195        H  0.51570461  0.75361920  0.97342695     0.11500
H196        H  0.41733026  0.68334082  0.92494553     0.09100
H197        H  0.39739303  0.80393533  0.97141701     0.08900
C198        C  0.21711796  0.94957437  0.55572547     0.05900
C199        C  0.22546012  0.93100871  0.59288555    -0.10200
C200        C  0.26367669  0.91724982  0.60155449     0.03400
C201        C  0.29509979  0.92337624  0.57412133    -0.08700
C202        C  0.28878975  0.94185661  0.53639652     0.05900
C203        C  0.24888514  0.95341258  0.52634315    -0.08200
H204        H  0.20175120  0.92649764  0.61513350     0.11500
H205        H  0.32469709  0.91321860  0.58210803     0.09100
H206        H  0.24261639  0.96475011  0.49628033     0.08900
C207        C  0.03884867  0.53891489  0.77794369     0.05900
C208        C  0.03113145  0.51895099  0.74009244    -0.10200
C209        C  0.05889664  0.52203791  0.70719589     0.03400
C210        C  0.09250459  0.54700357  0.71189571    -0.08700
C211        C  0.09874154  0.56838479  0.74823669     0.05900
C212        C  0.07278492  0.56361981  0.78132127    -0.08200
H213        H  0.00358499  0.50247567  0.73600336     0.11500
H214        H  0.11302736  0.55127572  0.68650435     0.09100
H215        H  0.07839767  0.58031063  0.80946074     0.08900
C216        C  0.75416633  0.24851839  0.18331008     0.83000
N217        N  0.78754067  0.26501408  0.20013983    -0.75300
C218        C  0.80412109  0.24713821  0.23301157     0.85500
N219        N  0.78730903  0.21312155  0.24919629    -0.75200
C220        C  0.75408767  0.19669958  0.23241085     0.85600
N221        N  0.73727790  0.21446959  0.19952923    -0.76900
C222        C  0.95740766  0.20040849  0.41478137     0.05900
C223        C  0.95981784  0.22852833  0.44818201    -0.10200
C224        C  0.95008308  0.27045842  0.44284210     0.03400
C225        C  0.93607659  0.28292846  0.40481858    -0.08700
C226        C  0.93238475  0.25515046  0.37254941     0.05900
C227        C  0.94337744  0.21441364  0.37734854    -0.08200
H228        H  0.96927953  0.21799917  0.47768247     0.11500
H229        H  0.92773786  0.31448752  0.40031784     0.09100
H230        H  0.94045378  0.19332801  0.35184755     0.08900
C231        C  0.77175278  0.43805750  0.02679838     0.05900
C232        C  0.74396907  0.47024185  0.03266219    -0.10200
C233        C  0.70521591  0.46181430  0.04858948     0.03400
C234        C  0.69584189  0.42201638  0.06091343    -0.08700
C235        C  0.72372997  0.39092714  0.05683515     0.05900
C236        C  0.76099017  0.39875238  0.03924079    -0.08200
H237        H  0.75222320  0.50127069  0.02514903     0.11500
H238        H  0.66687057  0.41528312  0.07427078     0.09100
H239        H  0.78231557  0.37420858  0.03645866     0.08900
C240        C  0.56855117  0.04034869  0.23753137     0.05900
C241        C  0.60887034  0.04828340  0.24452969    -0.10200
C242        C  0.62154395  0.06546301  0.28145010     0.03400
C243        C  0.59456916  0.07205751  0.31345431    -0.08700
C244        C  0.55386688  0.06428619  0.30816641     0.05900
C245        C  0.54068559  0.05070016  0.26895645    -0.08200
H246        H  0.63038760  0.04310831  0.22022414     0.11500
H247        H  0.60515683  0.08473027  0.34212636     0.09100
H248        H  0.50947368  0.05005480  0.26245131     0.08900
O249        O  0.93442634  0.54076385  0.96404288    -0.77300
O250        O  0.06342250  0.53600157  0.00534295    -0.77300
O251        O  0.97164334  0.53278978  0.07127474    -0.77400
O252        O  0.00347975  0.53387523  0.92154012    -0.77300
O253        O  0.03112016  0.50869243  0.08362234    -0.77400
O254        O  0.94980879  0.50468038  0.89253320    -0.77300
O255        O  0.08600344  0.52192876  0.94391132    -0.77300
O256        O  0.90450064  0.52310193  0.02008026    -0.77400
C257        C  0.90315042  0.53997839  0.98582759     1.12400
C258        C  0.09244429  0.53807822  0.97899396     1.12200
C259        C  0.99955515  0.52623851  0.09610809     1.12400
C260        C  0.98240207  0.52510083  0.88889596     1.12300
O261        O  0.97559081  0.43431104  0.92388402    -0.77300
O262        O  0.02779118  0.42930530  0.05703895    -0.77400
O263        O  0.91288632  0.43963782  0.02171511    -0.77300
O264        O  0.07548047  0.45040636  0.98114013    -0.77300
O265        O  0.09726714  0.47211620  0.04083195    -0.77400
O266        O  0.90329943  0.46178103  0.95848783    -0.77300
O267        O  0.03384345  0.45839621  0.90729252    -0.77300
O268        O  0.97056565  0.44817913  0.08450557    -0.77400
Co269      Co  0.95798479  0.48748766  0.94721515     1.51500
Co270      Co  0.04166391  0.48129961  0.02858941     1.51700
Co271      Co  0.94411844  0.48574645  0.04537518     1.51600
Co272      Co  0.03584644  0.49397346  0.95832297     1.51500
O273        O  0.98720091  0.47946170  0.99885939    -1.39300
C274        C  0.00367156  0.43666912  0.89793612     1.12300
C275        C  0.00346791  0.42995132  0.08701191     1.12400
C276        C  0.88993401  0.44571125  0.99156334     1.12300
C277        C  0.10488717  0.45575813  0.00628561     1.12300
C278        C  0.23089234  0.03612496  0.44304429     0.05900
C279        C  0.23955471  0.05138583  0.40423665    -0.10200
C280        C  0.27615922  0.07023817  0.39576971     0.03400
C281        C  0.30570294  0.07276485  0.42562844    -0.08700
C282        C  0.29862866  0.05775679  0.46502384     0.05900
C283        C  0.26028527  0.04082718  0.47422594    -0.08200
H284        H  0.21720521  0.04937804  0.38048890     0.11500
H285        H  0.33424329  0.08676223  0.41821289     0.09100
H286        H  0.25363672  0.03173313  0.50516585     0.08900
C287        C  0.24465714  0.18874437  0.24286134     0.83000
N288        N  0.21188929  0.20801006  0.25721583    -0.75300
C289        C  0.19641607  0.23946647  0.23622097     0.85500
N290        N  0.21388733  0.25207056  0.20097238    -0.75200
C291        C  0.24661990  0.23270398  0.18654142     0.85600
N292        N  0.26222488  0.20119563  0.20764029    -0.76900
C293        C  0.03402615  0.41485875  0.20803619     0.05900
C294        C  0.04676914  0.37673957  0.22101679    -0.10200
C295        C  0.05844557  0.37076337  0.26133835     0.03400
C296        C  0.05544179  0.40218589  0.29014689    -0.08700
C297        C  0.04240733  0.44088793  0.27873041     0.05900
C298        C  0.03283037  0.44762211  0.23691772    -0.08200
H299        H  0.04956457  0.35197397  0.19905043     0.11500
H300        H  0.06469636  0.39686638  0.32132607     0.09100
H301        H  0.02531555  0.47783425  0.22684113     0.08900
C302        C  0.44746675  0.22751158  0.04605917     0.05900
C303        C  0.40684698  0.23335645  0.05286958    -0.10200
C304        C  0.39247880  0.27088999  0.06658732     0.03400
C305        C  0.41816747  0.30442880  0.07140486    -0.08700
C306        C  0.45922873  0.30058313  0.06483999     0.05900
C307        C  0.47413629  0.26097633  0.05432403    -0.08200
H308        H  0.38620469  0.20797803  0.04872453     0.11500
H309        H  0.40615912  0.33351902  0.08121913     0.09100
H310        H  0.50570212  0.25592340  0.05392953     0.08900
C311        C  0.73659337  0.30914214  0.75146267     0.83000
N312        N  0.75671950  0.28396445  0.72593043    -0.75300
C313        C  0.74034953  0.24785022  0.71453241     0.85500
N314        N  0.70384226  0.23666442  0.72862263    -0.75200
C315        C  0.68363250  0.26190581  0.75406134     0.85600
N316        N  0.70010747  0.29810093  0.76582293    -0.76900
C317        C  0.93674961  0.43777157  0.71233651     0.05900
C318        C  0.96649311  0.43246527  0.74316066    -0.10200
C319        C  0.95510461  0.42499067  0.78478781     0.03400
C320        C  0.91451288  0.42045644  0.79392681    -0.08700
C321        C  0.88577583  0.42394917  0.76357992     0.05900
C322        C  0.89676455  0.43305325  0.72348834    -0.08200
H323        H  0.99773639  0.43440176  0.73505317     0.11500
H324        H  0.90513292  0.41368132  0.82494189     0.09100
H325        H  0.87382130  0.43572985  0.70048856     0.08900
C326        C  0.52926013  0.28737735  0.93946948     0.05900
C327        C  0.53849579  0.25778179  0.96999985    -0.10200
C328        C  0.54995605  0.21697927  0.95906483     0.03400
C329        C  0.55509036  0.20809773  0.91750837    -0.08700
C330        C  0.54885953  0.23781870  0.88780298     0.05900
C331        C  0.53472267  0.27640152  0.89858379    -0.08200
H332        H  0.53858079  0.26717147  0.00131665     0.11500
H333        H  0.56598557  0.17836301  0.90825222     0.09100
H334        H  0.53034257  0.29897617  0.87496864     0.08900
C335        C  0.73483501  0.05670313  0.55536498     0.05900
C336        C  0.74357879  0.09331595  0.57552125    -0.10200
C337        C  0.78155605  0.10125976  0.59100752     0.03400
C338        C  0.81230161  0.07355284  0.58582042    -0.08700
C339        C  0.80581239  0.03646810  0.56575810     0.05900
C340        C  0.76634040  0.02747839  0.55122350    -0.08200
H341        H  0.72025482  0.11558048  0.58021346     0.11500
H342        H  0.84154346  0.08083426  0.59798682     0.09100
H343        H  0.76020748  0.99801579  0.53783315     0.08900
C344        C  0.78423489  0.75303114  0.17138889     0.83000
N345        N  0.76996265  0.78582451  0.19201532    -0.75300
C346        C  0.78942479  0.80040408  0.22518258     0.85500
N347        N  0.82283013  0.78187626  0.23823512    -0.75200
C348        C  0.83720381  0.74917224  0.21767773     0.85600
N349        N  0.81770165  0.73436120  0.18441526    -0.76900
C350        C  0.71244926  0.92947460  0.44312688     0.05900
C351        C  0.74776021  0.94907575  0.45734696    -0.10200
C352        C  0.78142073  0.95461247  0.43121955     0.03400
C353        C  0.77940672  0.93932928  0.39137684    -0.08700
C354        C  0.74507570  0.91933470  0.37746063     0.05900
C355        C  0.71178177  0.91467246  0.40296358    -0.08200
H356        H  0.74879492  0.95968963  0.48849201     0.11500
H357        H  0.80502650  0.94236424  0.37119725     0.09100
H358        H  0.68527503  0.89939340  0.39149204     0.08900
C359        C  0.94341821  0.53046645  0.28729031     0.05900
C360        C  0.95680079  0.51623195  0.24834948    -0.10200
C361        C  0.96735171  0.54459576  0.21701062     0.03400
C362        C  0.96263075  0.58617661  0.22472528    -0.08700
C363        C  0.94772005  0.60000238  0.26207703     0.05900
C364        C  0.93878097  0.57252426  0.29334362    -0.08200
H365        H  0.95873412  0.48377782  0.24267697     0.11500
H366        H  0.96897800  0.60802841  0.20070262     0.09100
H367        H  0.92731757  0.58390179  0.32224463     0.08900
C368        C  0.56015325  0.71417150  0.05369697     0.05900
C369        C  0.55085346  0.75642541  0.04733047    -0.10200
C370        C  0.58173833  0.78717325  0.04628642     0.03400
C371        C  0.62085393  0.77511721  0.05353223    -0.08700
C372        C  0.62994473  0.73438838  0.06140609     0.05900
C373        C  0.60006821  0.70423356  0.06090327    -0.08200
H374        H  0.52020649  0.76524551  0.04339138     0.11500
H375        H  0.64453544  0.79792380  0.05401839     0.09100
H376        H  0.60791071  0.67281463  0.06690848     0.08900
C377        C  0.26783724  0.74158975  0.31248599     0.83000
N378        N  0.25055078  0.71204887  0.28930158    -0.75300
C379        C  0.26854364  0.69920143  0.25451545     0.85500
N380        N  0.30375048  0.71618767  0.24259935    -0.75200
C381        C  0.32106257  0.74571952  0.26589363     0.85600
N382        N  0.30294128  0.75866714  0.30070964    -0.76900
C383        C  0.47277047  0.94054184  0.29200195     0.05900
C384        C  0.46766223  0.97086001  0.26131855    -0.10200
C385        C  0.45684464  0.96002708  0.22039380     0.03400
C386        C  0.44762490  0.91895997  0.21226303    -0.08700
C387        C  0.44970834  0.88957607  0.24306901     0.05900
C388        C  0.46334972  0.90009898  0.28204832    -0.08200
H389        H  0.47036544  0.00225266  0.26983079     0.11500
H390        H  0.43748730  0.90997846  0.18211018     0.09100
H391        H  0.46497365  0.87680554  0.30536835     0.08900
C392        C  0.06567899  0.70819381  0.44364206     0.05900
C393        C  0.03735660  0.74026724  0.43793545    -0.10200
C394        C  0.05065791  0.78124169  0.42956499     0.03400
C395        C  0.09147359  0.78850400  0.42501579    -0.08700
C396        C  0.11875479  0.75708037  0.42883091     0.05900
C397        C  0.10612291  0.71758481  0.43861508    -0.08200
H398        H  0.00585889  0.73337919  0.43932843     0.11500
H399        H  0.10220413  0.81892646  0.41749601     0.09100
H400        H  0.12804604  0.69366814  0.44133804     0.08900
C401        C  0.27214745  0.54984963  0.05806146     0.05900
C402        C  0.24149837  0.54837735  0.02761416    -0.10200
C403        C  0.20097593  0.55883489  0.03732313     0.03400
C404        C  0.19310025  0.57416302  0.07664655    -0.08700
C405        C  0.22357239  0.57802471  0.10550053     0.05900
C406        C  0.26210691  0.56489415  0.09658498    -0.08200
H407        H  0.24937029  0.54092527  0.99676752     0.11500
H408        H  0.16328647  0.58400373  0.08460496     0.09100
H409        H  0.28505619  0.56796750  0.11964274     0.08900
O410        O  0.99191504  0.90954811  0.52890026    -0.77300
O411        O  0.02993686  0.07573035  0.53108417    -0.77300
O412        O  0.06947296  0.96641570  0.54457355    -0.77400
O413        O  0.94330007  0.01645308  0.54032070    -0.77300
O414        O  0.09721291  0.02403033  0.52580881    -0.77400
O415        O  0.92563654  0.95446828  0.53031360    -0.77300
O416        O  0.97075325  0.08587442  0.50419478    -0.77300
O417        O  0.05406471  0.89328914  0.50856965    -0.77400
C418        C  0.02091095  0.88384221  0.52597686     1.12400
C419        C  0.00153131  0.09939173  0.52273830     1.12200
C420        C  0.09980972  0.98997774  0.54346606     1.12400
C421        C  0.91747560  0.98851829  0.54568086     1.12300
O422        O  0.91984346  0.96738145  0.45732285    -0.77300
O423        O  0.08928663  0.02147744  0.44121527    -0.77400
O424        O  0.03189808  0.92403306  0.43677576    -0.77300
O425        O  0.97509926  0.04964741  0.42786888    -0.77300
O426        O  0.02990980  0.08278814  0.44548756    -0.77400
O427        O  0.97275692  0.90466083  0.45397321    -0.77300
O428        O  0.90548792  0.03296837  0.47019280    -0.77300
O429        O  0.10193699  0.96075500  0.46698824    -0.77400
Co430      Co  0.97088614  0.95362112  0.49030225     1.51500
Co431      Co  0.05809577  0.04746594  0.48599048     1.51700
Co432      Co  0.04665720  0.94863193  0.49133949     1.51600
Co433      Co  0.96169234  0.02823527  0.48289488     1.51500
O434        O  0.01552206  0.00088377  0.48625966    -1.39300
C435        C  0.89456814  0.99719833  0.45824530     1.12300
C436        C  0.11403500  0.99364940  0.44962820     1.12400
C437        C  0.00489518  0.89650536  0.43606892     1.12300
C438        C  0.99685846  0.08173461  0.42699311     1.12300
C439        C  0.02543378  0.81785953  0.42621152    -0.10500
C440        C  0.01390220  0.85346399  0.42610837    -0.12000
C441        C  0.21744176  0.59916474  0.14346371    -0.15700
C442        C  0.22138176  0.61976281  0.17370051     0.08400
C443        C  0.23422852  0.64588042  0.20532355     0.10200
C444        C  0.24916386  0.66951323  0.22908493    -0.16500
C445        C  0.24743882  0.75591822  0.34805295    -0.15700
C446        C  0.22449403  0.76382498  0.37513227     0.08400
C447        C  0.19150884  0.76684545  0.40139807     0.10200
C448        C  0.15946470  0.76431553  0.41764720    -0.16500
C449        C  0.35673200  0.76585843  0.25230961    -0.15700
C450        C  0.38442144  0.78767193  0.24334305     0.08400
C451        C  0.41289749  0.81886848  0.23715994     0.10200
C452        C  0.43269760  0.84966807  0.23681265    -0.16500
C453        C  0.81893866  0.97453565  0.44361146    -0.10500
C454        C  0.85273400  0.98777008  0.44927097    -0.12000
C455        C  0.76153957  0.73660444  0.13811405    -0.15700
C456        C  0.73661962  0.72727389  0.11339212     0.08400
C457        C  0.70208700  0.72272557  0.08948545     0.10200
C458        C  0.66975365  0.72480626  0.07395589    -0.16500
C459        C  0.93584946  0.64174442  0.26524478    -0.15700
C460        C  0.91997957  0.67396157  0.26018949     0.08400
C461        C  0.89538041  0.70574397  0.24739007     0.10200
C462        C  0.87040342  0.72770471  0.23372564    -0.16500
C463        C  0.77284309  0.83279171  0.24891633    -0.15700
C464        C  0.76072096  0.85741131  0.27315006     0.08400
C465        C  0.75024206  0.88265224  0.30619877     0.10200
C466        C  0.74546117  0.90103258  0.33764246    -0.16500
C467        C  0.84153599  0.01067587  0.56067585    -0.10500
C468        C  0.87592875  0.99810594  0.55742658    -0.12000
C469        C  0.76166963  0.22130274  0.68793515    -0.15700
C470        C  0.77625244  0.19705972  0.66495833     0.08400
C471        C  0.78646079  0.16588047  0.63768477     0.10200
C472        C  0.78779572  0.13706510  0.61513633    -0.16500
C473        C  0.64615710  0.24917072  0.77082490    -0.15700
C474        C  0.61646289  0.23989279  0.78936346     0.08400
C475        C  0.58554191  0.23286800  0.81761244     0.10200
C476        C  0.56463494  0.23192021  0.84748492    -0.16500
C477        C  0.84498380  0.41387704  0.77232110    -0.15700
C478        C  0.81227683  0.39888642  0.77482828     0.08400
C479        C  0.77846361  0.37353055  0.77176663     0.10200
C480        C  0.75547185  0.34617520  0.76449263    -0.16500
C481        C  0.35193560  0.27304833  0.08034503    -0.15700
C482        C  0.32052497  0.26910220  0.09773465     0.08400
C483        C  0.28888758  0.25903273  0.12423094     0.10200
C484        C  0.26695628  0.24761881  0.15106461    -0.16500
C485        C  0.16251293  0.26036748  0.25205215    -0.15700
C486        C  0.13451752  0.28008491  0.26326775     0.08400
C487        C  0.10325984  0.30717470  0.27103763     0.10200
C488        C  0.07976459  0.33449857  0.27075532    -0.16500
C489        C  0.15692089  0.00352623  0.44755711    -0.10500
C490        C  0.19130648  0.01676096  0.44856127    -0.12000
C491        C  0.26184423  0.15717837  0.26675430    -0.15700
C492        C  0.27288752  0.13306364  0.29165237     0.08400
C493        C  0.28059617  0.10807520  0.32538808     0.10200
C494        C  0.28177544  0.08940636  0.35684118    -0.16500
C495        C  0.99614209  0.42529790  0.85488241    -0.10500
C496        C  0.98245257  0.42347650  0.82007275    -0.12000
C497        C  0.98157331  0.53362853  0.17587936    -0.10500
C498        C  0.99191889  0.53124884  0.14000055    -0.12000
C499        C  0.01598358  0.41949841  0.12825642    -0.10500
C500        C  0.02404372  0.41875735  0.16463932    -0.12000
C501        C  0.16629411  0.55432337  0.00915918    -0.10500
C502        C  0.13343855  0.54981155  0.99250281    -0.12000
C503        C  0.84687912  0.44254638  0.99855026    -0.10500
C504        C  0.81201353  0.44333165  0.00969824    -0.12000
C505        C  0.98029405  0.12169084  0.41702137    -0.10500
C506        C  0.96948933  0.15735897  0.41701930    -0.12000
C507        C  0.73572819  0.16172145  0.25060133    -0.15700
C508        C  0.71718605  0.13371921  0.26498454     0.08400
C509        C  0.68975457  0.10387218  0.27799599     0.10200
C510        C  0.66077123  0.08280897  0.28337287    -0.16500
C511        C  0.73605612  0.26842522  0.14958102    -0.15700
C512        C  0.72430113  0.29005775  0.12285482     0.08400
C513        C  0.71657828  0.32124165  0.09488323     0.10200
C514        C  0.71634716  0.35188231  0.07497115    -0.16500
C515        C  0.83866463  0.26424789  0.25200525    -0.15700
C516        C  0.86618531  0.27222334  0.27398129     0.08400
C517        C  0.89450645  0.27315658  0.30532335     0.10200
C518        C  0.91428565  0.26752345  0.33515031    -0.16500
C519        C  0.01339712  0.53531004  0.81422356    -0.10500
C520        C  0.99778865  0.53342267  0.84795182    -0.12000
C521        C  0.17569076  0.96396128  0.55039390    -0.10500
C522        C  0.14058797  0.97484220  0.55061815    -0.12000
C523        C  0.19376808  0.69381039  0.76069398    -0.15700
C524        C  0.17425028  0.66352690  0.75512040     0.08400
C525        C  0.15121689  0.62789408  0.75169082     0.10200
C526        C  0.12918281  0.59898236  0.75008510    -0.16500
C527        C  0.26142568  0.81896752  0.72470313    -0.15700
C528        C  0.26742568  0.84418689  0.69893637     0.08400
C529        C  0.27084983  0.87232806  0.66701992     0.10200
C530        C  0.26978711  0.89438900  0.63797908    -0.16500
C531        C  0.28176490  0.75783773  0.85607717    -0.15700
C532        C  0.30341120  0.75323633  0.88457087     0.08400
C533        C  0.33390077  0.74671065  0.91263992     0.10200
C534        C  0.36417218  0.74297438  0.93135818    -0.16500
C535        C  0.57576193  0.83129458  0.03810589    -0.10500
C536        C  0.57485505  0.86816609  0.03048667    -0.12000
C537        C  0.46889956  0.82301871  0.99458707    -0.10500
C538        C  0.47046336  0.85858942  0.00656217    -0.12000
C539        C  0.55779918  0.02299177  0.19729742    -0.10500
C540        C  0.55355807  0.00892424  0.16268650    -0.12000
C541        C  0.45587106  0.00644367  0.15223197    -0.10500
C542        C  0.45511339  0.98896440  0.18559114    -0.12000
C543        C  0.45915972  0.18670982  0.03054376    -0.10500
C544        C  0.46293164  0.15189891  0.01658677    -0.12000
C545        C  0.55736769  0.18290512  0.98797616    -0.10500
C546        C  0.56117168  0.14899933  0.00395608    -0.12000
C547        C  0.00839989  0.14301461  0.52673269    -0.10500
C548        C  0.02083487  0.17799380  0.52815918    -0.12000
C549        C  0.44857878  0.03684573  0.83769935    -0.10500
C550        C  0.44936422  0.02752451  0.87412289    -0.12000
C551        C  0.14620608  0.44751242  0.99311154    -0.10500
C552        C  0.17987481  0.44273344  0.97888419    -0.12000
C553        C  0.15186326  0.22615937  0.72100983    -0.15700
C554        C  0.13246422  0.23923884  0.69336986     0.08400
C555        C  0.11269693  0.25176502  0.65791513     0.10200
C556        C  0.09692558  0.25767093  0.62565619    -0.16500
C557        C  0.34914762  0.07265710  0.73755406    -0.15700
C558        C  0.31600324  0.08617604  0.73816349     0.08400
C559        C  0.28047136  0.10754267  0.74505994     0.10200
C560        C  0.25417551  0.13056378  0.75414951    -0.16500
C561        C  0.25456702  0.33595530  0.90892162    -0.15700
C562        C  0.24933469  0.30386478  0.89170907     0.08400
C563        C  0.23895878  0.26976509  0.86763614     0.10200
C564        C  0.22846626  0.24428289  0.84332348    -0.16500
C565        C  0.82810438  0.54784789  0.95808492    -0.10500
C566        C  0.86314101  0.54735675  0.96906625    -0.12000
C567        C  0.99651580  0.81011437  0.54557820    -0.10500
C568        C  0.01242085  0.84266185  0.53856648    -0.12000
C569        C  0.73403738  0.64487871  0.90394478    -0.15700
C570        C  0.73621233  0.67805774  0.88867304     0.08400
C571        C  0.74575986  0.71426536  0.86792639     0.10200
C572        C  0.75763242  0.74175103  0.84687619    -0.16500
C573        C  0.85240881  0.77046370  0.74050698    -0.15700
C574        C  0.87484363  0.75925648  0.71415332     0.08400
C575        C  0.89606382  0.74835403  0.67874100     0.10200
C576        C  0.91180788  0.74271795  0.64619759    -0.16500
C577        C  0.55249417  0.98942548  0.82118911    -0.10500
C578        C  0.55236459  0.00159544  0.85670699    -0.12000
C579        C  0.64683928  0.91707453  0.73487768    -0.15700
C580        C  0.67835248  0.90033956  0.73766765     0.08400
C581        C  0.71256426  0.87800679  0.74690861     0.10200
C582        C  0.73835209  0.85575906  0.75832673    -0.16500
C583        C  0.49664640  0.37393935  0.06709198    -0.10500
C584        C  0.48357674  0.33859019  0.06778500    -0.12000
C585        C  0.51646028  0.32992741  0.94777449    -0.10500
C586        C  0.50618872  0.36592784  0.95035744    -0.12000
C587        C  0.67324362  0.49186468  0.05096685    -0.10500
C588        C  0.64134230  0.50947321  0.05045608    -0.12000
C589        C  0.64458628  0.49709656  0.94718178    -0.10500
C590        C  0.67856219  0.51092034  0.94202720    -0.12000
C591        C  0.51339843  0.64612836  0.05017284    -0.10500
C592        C  0.53095151  0.67950341  0.05267253    -0.12000
C593        C  0.49327570  0.67631770  0.94210952    -0.10500
C594        C  0.50590355  0.64144134  0.93807467    -0.12000
C595        C  0.31456943  0.53832864  0.05200148    -0.10500
C596        C  0.35076458  0.53171058  0.05109388    -0.12000
C597        C  0.32431585  0.46729523  0.93033036    -0.10500
C598        C  0.35871887  0.48065692  0.93151859    -0.12000
C599        C  0.03970157  0.47189531  0.31132698    -0.10500
C600        C  0.03715933  0.49066347  0.34374435    -0.12000
C601        C  0.93580318  0.50402556  0.32267350    -0.10500
C602        C  0.93384358  0.48982536  0.35715375    -0.12000
C603        C  0.05201814  0.49259115  0.63130847    -0.10500
C604        C  0.05329187  0.50300587  0.66711652    -0.12000
C605        C  0.94504891  0.45910468  0.63307087    -0.10500
C606        C  0.94441987  0.44866913  0.66915600    -0.12000
C607        C  0.06418539  0.32259286  0.49446287    -0.10500
C608        C  0.06140213  0.35602735  0.47852765    -0.12000
C609        C  0.96061684  0.33521224  0.49185237    -0.10500
C610        C  0.95551772  0.30260190  0.47397095    -0.12000
C611        C  0.94159828  0.63559984  0.50325094    -0.10500
C612        C  0.94144970  0.66992974  0.51766006    -0.12000
C613        C  0.05596782  0.66536547  0.45468770    -0.10500
C614        C  0.05331139  0.62939197  0.46536434    -0.12000
C615        C  0.50003563  0.05437543  0.64966942    -0.10500
C616        C  0.48538934  0.05653768  0.68435941    -0.12000
C617        C  0.50015603  0.94083020  0.64217311    -0.10500
C618        C  0.51529540  0.94217344  0.67616727    -0.12000
C619        C  0.36457036  0.05750725  0.51115989    -0.10500
C620        C  0.33228626  0.05859761  0.49378837    -0.12000
C621        C  0.32487017  0.94915608  0.51098394    -0.10500
C622        C  0.35914287  0.95485929  0.49828300    -0.12000
C623        C  0.51251755  0.07061893  0.37846541    -0.10500
C624        C  0.52769018  0.06959698  0.34420945    -0.12000
C625        C  0.49690328  0.95285622  0.37000714    -0.10500
C626        C  0.48621019  0.94914472  0.33424702    -0.12000
C627        C  0.65677111  0.05057665  0.53424759    -0.10500
C628        C  0.69290576  0.05124139  0.54152347    -0.12000
C629        C  0.64136518  0.92939017  0.48072468    -0.10500
C630        C  0.67537910  0.92674837  0.46724136    -0.12000
loop_ 
_geom_bond_atom_site_label_1 
_geom_bond_atom_site_label_2 
_geom_bond_distance 
_geom_bond_site_symmetry_2 
_ccdc_geom_bond_type 
O1            C9   1.262       .  A
O1          Co21   1.995   1_545  S
O2           C10   1.295       .  A
O2          Co22   2.091   1_545  S
O3           C11   1.271       .  A
O3          Co23   1.981       .  S
O4           C12   1.279       .  A
O4          Co24   2.003       .  S
O5           C11   1.269       .  A
O5          Co22   2.033   1_545  S
O6           C12   1.280       .  A
O6          Co21   2.056   1_545  S
O7           C10   1.270       .  A
O7          Co24   1.945       .  S
O8            C9   1.285       .  A
O8          Co23   2.034       .  S
C9          C627   1.484       .  S
C10         C619   1.473       .  S
C11         C623   1.474       .  S
C12         C615   1.486       .  S
O13          C26   1.268       .  A
O13         Co21   1.976       .  S
O14          C27   1.274       .  A
O14         Co22   1.993       .  S
O15          C28   1.259       .  A
O15         Co23   1.972   1_565  S
O16          C29   1.301       .  A
O16         Co24   2.115   1_565  S
O17          C29   1.271       .  A
O17         Co22   1.941       .  S
O18          C28   1.281       .  A
O18         Co21   2.025       .  S
O19          C26   1.263       .  A
O19         Co24   2.021   1_565  S
O20          C27   1.275       .  A
O20         Co23   2.048   1_565  S
Co21         O25   2.125   1_565  S
Co22         O25   2.109   1_565  S
Co23         O25   2.127       .  S
Co24         O25   2.117       .  S
C26         C617   1.471       .  S
C27         C625   1.477       .  S
C28         C629   1.461       .  S
C29         C622   1.482       .  S
O30          C38   1.277       .  A
O30         Co50   1.985       .  S
O31          C39   1.298       .  A
O31         Co51   2.103   1_655  S
O32          C40   1.263       .  A
O32         Co52   1.986       .  S
O33          C41   1.273       .  A
O33         Co53   2.001       .  S
O34          C40   1.262       .  A
O34         Co51   2.013   1_655  S
O35          C41   1.269       .  A
O35         Co50   2.022       .  S
O36          C39   1.274       .  A
O36         Co53   1.935       .  S
O37          C38   1.287       .  A
O37         Co52   2.041       .  S
C38         C611   1.452       .  S
C39         C609   1.469       .  S
C40         C602   1.465       .  S
C41         C605   1.477       .  S
O42          C55   1.267       .  A
O42         Co50   1.980   1_455  S
O43          C56   1.310       .  A
O43         Co51   2.092       .  S
O44          C57   1.265       .  A
O44         Co52   2.000   1_455  S
O45          C58   1.295       .  A
O45         Co53   2.065   1_455  S
O46          C58   1.274       .  A
O46         Co51   1.936       .  S
O47          C57   1.258       .  A
O47         Co50   2.014   1_455  S
O48          C55   1.272       .  A
O48         Co53   2.024   1_455  S
O49          C56   1.285       .  A
O49         Co52   1.924   1_455  S
Co50         O54   2.093       .  S
Co51         O54   2.135   1_455  S
Co52         O54   1.979       .  S
Co53         O54   2.070       .  S
C55         C603   1.458       .  S
C56         C600   1.470       .  S
C57         C614   1.480       .  S
C58         C608   1.461       .  S
O59          C67   1.260       .  A
O59         Co79   1.986   1_554  S
O60          C68   1.294       .  A
O60         Co80   2.091   1_554  S
O61          C69   1.274       .  A
O61         Co81   1.990       .  S
O62          C70   1.275       .  A
O62         Co82   1.996       .  S
O63          C69   1.269       .  A
O63         Co80   2.034   1_554  S
O64          C70   1.281       .  A
O64         Co79   2.067   1_554  S
O65          C68   1.268       .  A
O65         Co82   1.934       .  S
O66          C67   1.285       .  A
O66         Co81   2.033       .  S
C67         C596   1.481       .  S
C68         C588   1.462       .  S
C69         C583   1.483       .  S
C70         C591   1.491       .  S
O71          C84   1.270       .  A
O71         Co79   1.982       .  S
O72          C85   1.276       .  A
O72         Co80   1.997       .  S
O73          C86   1.260       .  A
O73         Co81   1.975   1_556  S
O74          C87   1.299       .  A
O74         Co82   2.106   1_556  S
O75          C87   1.272       .  A
O75         Co80   1.947       .  S
O76          C86   1.285       .  A
O76         Co79   2.037       .  S
O77          C84   1.262       .  A
O77         Co82   2.018   1_556  S
O78          C85   1.275       .  A
O78         Co81   2.045   1_556  S
Co79         O83   2.139       .  S
Co80         O83   2.113       .  S
Co81         O83   2.134   1_554  S
Co82         O83   2.116   1_554  S
C84         C594   1.473       .  S
C85         C586   1.481       .  S
C86         C598   1.471       .  S
C87         C589   1.482       .  S
C88         C577   1.473       .  S
C88          C89   1.431       .  A
C88          C93   1.396       .  A
C89          C90   1.429       .  A
C89          H94   1.079       .  S
C90         C618   1.474       .  S
C90          C91   1.401       .  A
C91          C92   1.397       .  A
C91          H95   1.085       .  S
C92         C579   1.433       .  S
C92          C93   1.395       .  A
C93          H96   1.086       .  S
C97         C582   1.427       .  S
C97          N98   1.355       .  A
C97         N102   1.354       .  A
N98          C99   1.354       .  A
C99         C572   1.428       .  S
C99         N100   1.356       .  A
N100        C101   1.355       .  A
C101        C573   1.427       .  S
C101        N102   1.356       .  A
C103        C567   1.448       .  S
C103        C104   1.410       .  A
C103        C108   1.394       .  A
C104        C105   1.412       .  A
C104        H109   1.073       .  S
C105        C612   1.458       .  S
C105        C106   1.403       .  A
C106        C107   1.401       .  A
C106        H110   1.084       .  S
C107        C576   1.432       .  S
C107        C108   1.395       .  A
C108        H111   1.086       .  S
C112        C565   1.481       .  S
C112        C113   1.436       .  A
C112        C117   1.394       .  A
C113        C114   1.436       .  A
C113        H118   1.079       .  S
C114        C590   1.484       .  S
C114        C115   1.402       .  A
C115        C116   1.398       .  A
C115        H119   1.085       .  S
C116        C569   1.433       .  S
C116        C117   1.395       .  A
C117        H120   1.086       .  S
C121        C560   1.430       .  S
C121        N122   1.356       .  A
C121        N126   1.355       .  A
N122        C123   1.355       .  A
C123        C564   1.430       .  S
C123        N124   1.356       .  A
N124        C125   1.355       .  A
C125        C553   1.430       .  S
C125        N126   1.356       .  A
C127        C597   1.482       .  S
C127        C128   1.401       .  A
C127        C132   1.429       .  A
C128        C129   1.401       .  A
C128        H133   1.085       .  S
C129        C561   1.434       .  S
C129        C130   1.397       .  A
C130        C131   1.396       .  A
C130        H134   1.085       .  S
C131        C552   1.480       .  S
C131        C132   1.429       .  A
C132        H135   1.066       .  S
C136        C549   1.484       .  S
C136        C137   1.394       .  A
C136        C141   1.439       .  A
C137        C138   1.394       .  A
C137        H142   1.086       .  S
C138        C557   1.435       .  S
C138        C139   1.398       .  A
C139        C140   1.403       .  A
C139        H143   1.085       .  S
C140        C616   1.489       .  S
C140        C141   1.440       .  A
C141        H144   1.081       .  S
C145        C607   1.465       .  S
C145        C146   1.405       .  A
C145        C150   1.419       .  A
C146        C147   1.401       .  A
C146        H151   1.084       .  S
C147        C556   1.435       .  S
C147        C148   1.393       .  A
C148        C149   1.393       .  A
C148        H152   1.086       .  S
C149        C548   1.456       .  S
C149        C150   1.420       .  A
C150        H153   1.079       .  S
O154        C162   1.278   1_565  A
O154       Co174   1.991       .  S
O155        C163   1.301   1_545  A
O155       Co175   2.101       .  S
O156        C164   1.266   1_556  A
O156       Co176   1.990       .  S
O157        C165   1.276       .  A
O157       Co177   2.007       .  S
O158        C164   1.272       .  A
O158       Co175   2.044       .  S
O159        C165   1.266   1_556  A
O159       Co174   2.014       .  S
O160        C163   1.277       .  A
O160       Co177   1.937       .  S
O161        C162   1.288       .  A
O161       Co176   2.053       .  S
C162        C578   1.470       .  S
C163        C540   1.475   1_565  S
C164        C546   1.490       .  S
C165        C536   1.482       .  S
O166        C179   1.266   1_556  A
O166       Co174   1.979       .  S
O167        C180   1.313   1_554  A
O167       Co175   2.097       .  S
O168        C181   1.268       .  A
O168       Co176   1.996       .  S
O169        C182   1.298   1_565  A
O169       Co177   2.072       .  S
O170        C182   1.279       .  A
O170       Co175   1.961       .  S
O171        C181   1.255   1_565  A
O171       Co174   2.000       .  S
O172        C179   1.276       .  A
O172       Co177   2.043       .  S
O173        C180   1.285       .  A
O173       Co176   1.930       .  S
Co174       O178   2.110   1_566  S
Co175       O178   2.160       .  S
Co176       O178   2.000   1_556  S
Co177       O178   2.088   1_565  S
C179        C538   1.472       .  S
C180        C544   1.482   1_556  S
C181        C550   1.479       .  S
C182        C541   1.488       .  S
C183        C531   1.423       .  S
C183        N184   1.355       .  A
C183        N188   1.351       .  A
N184        C185   1.355       .  A
C185        C527   1.426       .  S
C185        N186   1.356       .  A
N186        C187   1.354       .  A
C187        C523   1.421       .  S
C187        N188   1.352       .  A
C189        C537   1.474       .  S
C189        C190   1.434       .  A
C189        C194   1.394       .  A
C190        C191   1.432       .  A
C190        H195   1.080       .  S
C191        C593   1.476       .  S
C191        C192   1.399       .  A
C192        C193   1.396       .  A
C192        H196   1.085       .  S
C193        C534   1.428       .  S
C193        C194   1.391       .  A
C194        H197   1.086       .  S
C198        C521   1.485       .  S
C198        C199   1.396       .  A
C198        C203   1.437       .  A
C199        C200   1.396       .  A
C199        H204   1.085       .  S
C200        C530   1.430       .  S
C200        C201   1.395       .  A
C201        C202   1.398       .  A
C201        H205   1.085       .  S
C202        C621   1.484       .  S
C202        C203   1.437       .  A
C203        H206   1.078       .  S
C207        C519   1.464       .  S
C207        C208   1.422       .  A
C207        C212   1.395       .  A
C208        C209   1.424       .  A
C208        H213   1.075       .  S
C209        C604   1.462       .  S
C209        C210   1.396       .  A
C210        C211   1.393       .  A
C210        H214   1.085       .  S
C211        C526   1.426       .  S
C211        C212   1.395       .  A
C212        H215   1.085       .  S
C216        C511   1.429       .  S
C216        N217   1.358       .  A
C216        N221   1.356       .  A
N217        C218   1.355       .  A
C218        C515   1.428       .  S
C218        N219   1.354       .  A
N219        C220   1.352       .  A
C220        C507   1.428       .  S
C220        N221   1.357       .  A
C222        C506   1.474       .  S
C222        C223   1.428       .  A
C222        C227   1.398       .  A
C223        C224   1.428       .  A
C223        H228   1.079       .  S
C224        C610   1.472       .  S
C224        C225   1.399       .  A
C225        C226   1.396       .  A
C225        H229   1.085       .  S
C226        C518   1.434       .  S
C226        C227   1.399       .  A
C227        H230   1.085       .  S
C231        C504   1.469       .  S
C231        C232   1.427       .  A
C231        C236   1.397       .  A
C232        C233   1.424       .  A
C232        H237   1.081       .  S
C233        C587   1.466       .  S
C233        C234   1.400       .  A
C234        C235   1.396       .  A
C234        H238   1.085       .  S
C235        C514   1.433       .  S
C235        C236   1.396       .  A
C236        H239   1.085       .  S
C240        C539   1.478       .  S
C240        C241   1.396       .  A
C240        C245   1.428       .  A
C241        C242   1.398       .  A
C241        H246   1.085       .  S
C242        C510   1.431       .  S
C242        C243   1.398       .  A
C243        C244   1.399       .  A
C243        H247   1.085       .  S
C244        C624   1.478       .  S
C244        C245   1.428       .  A
C245        H248   1.071       .  S
O249        C257   1.266       .  A
O249       Co269   1.997       .  S
O250        C258   1.299   1_554  A
O250       Co270   2.076       .  S
O251        C259   1.266       .  A
O251       Co271   1.978       .  S
O252        C260   1.315   1_455  A
O252       Co272   2.100       .  S
O253        C259   1.275   1_455  A
O253       Co270   2.039       .  S
O254        C260   1.282       .  A
O254       Co269   1.904       .  S
O255        C258   1.281       .  A
O255       Co272   1.965       .  S
O256        C257   1.255   1_554  A
O256       Co271   2.004       .  S
C257        C566   1.477       .  S
C258        C502   1.494       .  S
C259        C498   1.467       .  S
C260        C520   1.460       .  S
O261        C274   1.267   1_655  A
O261       Co269   1.992       .  S
O262        C275   1.273       .  A
O262       Co270   1.997       .  S
O263        C276   1.275   1_554  A
O263       Co271   1.986       .  S
O264        C277   1.300   1_556  A
O264       Co272   2.106       .  S
O265        C277   1.275       .  A
O265       Co270   1.939       .  S
O266        C276   1.284       .  A
O266       Co269   2.045       .  S
O267        C274   1.270       .  A
O267       Co272   2.033       .  S
O268        C275   1.265   1_655  A
O268       Co271   2.001       .  S
Co269       O273   1.981       .  S
Co270       O273   2.078   1_454  S
Co271       O273   2.105   1_554  S
Co272       O273   2.150   1_455  S
C274        C495   1.479   1_455  S
C275        C499   1.461       .  S
C276        C503   1.465       .  S
C277        C551   1.477   1_554  S
C278        C490   1.477       .  S
C278        C279   1.397       .  A
C278        C283   1.431       .  A
C279        C280   1.397       .  A
C279        H284   1.086       .  S
C280        C494   1.436       .  S
C280        C281   1.399       .  A
C281        C282   1.402       .  A
C281        H285   1.085       .  S
C282        C620   1.476       .  S
C282        C283   1.428       .  A
C283        H286   1.079       .  S
C287        C491   1.430       .  S
C287        N288   1.354       .  A
C287        N292   1.356       .  A
N288        C289   1.353       .  A
C289        C485   1.428       .  S
C289        N290   1.356       .  A
N290        C291   1.356       .  A
C291        C484   1.430       .  S
C291        N292   1.358       .  A
C293        C500   1.469       .  S
C293        C294   1.394       .  A
C293        C298   1.427       .  A
C294        C295   1.396       .  A
C294        H299   1.086       .  S
C295        C488   1.430       .  S
C295        C296   1.396       .  A
C296        C297   1.400       .  A
C296        H300   1.085       .  S
C297        C599   1.472       .  S
C297        C298   1.428       .  A
C298        H301   1.079       .  S
C302        C543   1.483       .  S
C302        C303   1.396       .  A
C302        C307   1.434       .  A
C303        C304   1.396       .  A
C303        H308   1.085       .  S
C304        C481   1.433       .  S
C304        C305   1.399       .  A
C305        C306   1.401       .  A
C305        H309   1.085       .  S
C306        C584   1.486       .  S
C306        C307   1.435       .  A
C307        H310   1.074       .  S
C311        C480   1.427       .  S
C311        N312   1.354       .  A
C311        N316   1.356       .  A
N312        C313   1.351       .  A
C313        C469   1.423       .  S
C313        N314   1.355       .  A
N314        C315   1.355       .  A
C315        C473   1.429       .  S
C315        N316   1.358       .  A
C317        C606   1.481       .  S
C317        C318   1.437       .  A
C317        C322   1.396       .  A
C318        C319   1.436       .  A
C318        H323   1.082       .  S
C319        C496   1.482       .  S
C319        C320   1.400       .  A
C320        C321   1.396       .  A
C320        H324   1.085       .  S
C321        C477   1.433       .  S
C321        C322   1.395       .  A
C322        H325   1.086       .  S
C326        C585   1.486       .  S
C326        C327   1.435       .  A
C326        C331   1.396       .  A
C327        C328   1.438       .  A
C327        H332   1.069   1_556  S
C328        C545   1.493       .  S
C328        C329   1.400       .  A
C329        C330   1.399       .  A
C329        H333   1.085       .  S
C330        C476   1.432       .  S
C330        C331   1.398       .  A
C331        H334   1.085       .  S
C335        C628   1.490       .  S
C335        C336   1.395       .  A
C335        C340   1.440       .  A
C336        C337   1.397       .  A
C336        H341   1.085       .  S
C337        C472   1.425       .  S
C337        C338   1.391       .  A
C338        C339   1.394       .  A
C338        H342   1.086       .  S
C339        C467   1.482       .  S
C339        C340   1.438       .  A
C340        H343   1.076   1_545  S
C344        C455   1.433       .  S
C344        N345   1.356       .  A
C344        N349   1.358       .  A
N345        C346   1.353       .  A
C346        C463   1.427       .  S
C346        N347   1.354       .  A
N347        C348   1.354       .  A
C348        C462   1.429       .  S
C348        N349   1.359       .  A
C350        C630   1.472       .  S
C350        C351   1.422       .  A
C350        C355   1.400       .  A
C351        C352   1.424       .  A
C351        H356   1.076       .  S
C352        C453   1.471       .  S
C352        C353   1.397       .  A
C353        C354   1.398       .  A
C353        H357   1.086       .  S
C354        C466   1.432       .  S
C354        C355   1.399       .  A
C355        H358   1.085       .  S
C359        C601   1.471       .  S
C359        C360   1.427       .  A
C359        C364   1.401       .  A
C360        C361   1.430       .  A
C360        H365   1.081       .  S
C361        C497   1.470       .  S
C361        C362   1.395       .  A
C362        C363   1.394       .  A
C362        H366   1.086       .  S
C363        C459   1.432       .  S
C363        C364   1.397       .  A
C364        H367   1.085       .  S
C368        C592   1.493       .  S
C368        C369   1.439       .  A
C368        C373   1.404       .  A
C369        C370   1.439       .  A
C369        H374   1.080       .  S
C370        C535   1.488       .  S
C370        C371   1.398       .  A
C371        C372   1.398       .  A
C371        H375   1.086       .  S
C372        C458   1.439       .  S
C372        C373   1.401       .  A
C373        H376   1.085       .  S
C377        C445   1.427       .  S
C377        N378   1.355       .  A
C377        N382   1.354       .  A
N378        C379   1.353       .  A
C379        C444   1.431       .  S
C379        N380   1.357       .  A
N380        C381   1.357       .  A
C381        C449   1.431       .  S
C381        N382   1.357       .  A
C383        C626   1.483       .  S
C383        C384   1.430       .  A
C383        C388   1.396       .  A
C384        C385   1.433       .  A
C384        H389   1.067   1_565  S
C385        C542   1.489       .  S
C385        C386   1.402       .  A
C386        C387   1.402       .  A
C386        H390   1.085       .  S
C387        C452   1.436       .  S
C387        C388   1.399       .  A
C388        H391   1.085       .  S
C392        C613   1.484       .  S
C392        C393   1.439       .  A
C392        C397   1.398       .  A
C393        C394   1.438       .  A
C393        H398   1.080       .  S
C394        C439   1.481       .  S
C394        C395   1.396       .  A
C395        C396   1.392       .  A
C395        H399   1.086       .  S
C396        C448   1.431       .  S
C396        C397   1.396       .  A
C397        H400   1.085       .  S
C401        C595   1.489       .  S
C401        C402   1.438       .  A
C401        C406   1.393       .  A
C402        C403   1.440       .  A
C402        H407   1.070   1_554  S
C403        C501   1.496       .  S
C403        C404   1.404       .  A
C404        C405   1.402       .  A
C404        H408   1.085       .  S
C405        C441   1.434       .  S
C405        C406   1.396       .  A
C406        H409   1.086       .  S
O410        C418   1.297   1_655  A
O410       Co430   2.059       .  S
O411        C419   1.268       .  A
O411       Co431   1.979       .  S
O412        C420   1.272       .  A
O412       Co432   1.991       .  S
O413        C421   1.267   1_545  A
O413       Co433   2.014       .  S
O414        C420   1.264   1_545  A
O414       Co431   2.018       .  S
O415        C421   1.253       .  A
O415       Co430   2.000       .  S
O416        C419   1.276   1_655  A
O416       Co433   2.030       .  S
O417        C418   1.283       .  A
O417       Co432   1.922       .  S
C418        C568   1.439       .  S
C419        C547   1.451       .  S
C420        C522   1.482       .  S
C421        C468   1.481       .  S
O422        C435   1.301       .  A
O422       Co430   2.087       .  S
O423        C436   1.273   1_545  A
O423       Co431   1.989       .  S
O424        C437   1.272       .  A
O424       Co432   2.019       .  S
O425        C438   1.274       .  A
O425       Co433   1.986       .  S
O426        C438   1.268   1_455  A
O426       Co431   2.014       .  S
O427        C437   1.255   1_655  A
O427       Co430   1.993       .  S
O428        C435   1.284   1_545  A
O428       Co433   1.943       .  S
O429        C436   1.283       .  A
O429       Co432   2.051       .  S
Co430       O434   2.148   1_665  S
Co431       O434   2.080       .  S
Co432       O434   2.024   1_565  S
Co433       O434   2.030   1_655  S
C435        C454   1.466       .  S
C436        C489   1.474   1_565  S
C437        C440   1.480       .  S
C438        C505   1.467       .  S
C439        C440   1.233       .  T
C441        C442   1.202       .  T
C442        C443   1.407       .  S
C443        C444   1.203       .  T
C445        C446   1.200       .  T
C446        C447   1.402       .  S
C447        C448   1.200       .  T
C449        C450   1.203       .  T
C450        C451   1.407       .  S
C451        C452   1.203       .  T
C453        C454   1.225       .  T
C455        C456   1.204       .  T
C456        C457   1.409       .  S
C457        C458   1.205       .  T
C459        C460   1.200       .  T
C460        C461   1.404       .  S
C461        C462   1.201       .  T
C463        C464   1.201       .  T
C464        C465   1.403       .  S
C465        C466   1.201       .  T
C467        C468   1.234   1_545  T
C469        C470   1.197       .  T
C470        C471   1.397       .  S
C471        C472   1.196       .  T
C473        C474   1.201       .  T
C474        C475   1.404       .  S
C475        C476   1.201       .  T
C477        C478   1.201       .  T
C478        C479   1.404       .  S
C479        C480   1.201       .  T
C481        C482   1.202       .  T
C482        C483   1.405       .  S
C483        C484   1.202       .  T
C485        C486   1.201       .  T
C486        C487   1.403       .  S
C487        C488   1.200       .  T
C489        C490   1.230       .  T
C491        C492   1.202       .  T
C492        C493   1.407       .  S
C493        C494   1.203       .  T
C495        C496   1.233       .  T
C497        C498   1.226       .  T
C499        C500   1.224       .  T
C501        C502   1.241   1_554  T
C503        C504   1.224   1_556  T
C505        C506   1.227       .  T
C507        C508   1.201       .  T
C508        C509   1.403       .  S
C509        C510   1.200       .  T
C511        C512   1.201       .  T
C512        C513   1.404       .  S
C513        C514   1.201       .  T
C515        C516   1.201       .  T
C516        C517   1.404       .  S
C517        C518   1.201       .  T
C519        C520   1.221   1_455  T
C521        C522   1.235       .  T
C523        C524   1.197       .  T
C524        C525   1.398       .  S
C525        C526   1.197       .  T
C527        C528   1.200       .  T
C528        C529   1.402       .  S
C529        C530   1.199       .  T
C531        C532   1.198       .  T
C532        C533   1.399       .  S
C533        C534   1.198       .  T
C535        C536   1.236       .  T
C537        C538   1.228   1_556  T
C539        C540   1.230       .  T
C541        C542   1.237   1_545  T
C543        C544   1.234       .  T
C545        C546   1.239   1_556  T
C547        C548   1.217       .  T
C549        C550   1.234       .  T
C551        C552   1.231       .  T
C553        C554   1.203       .  T
C554        C555   1.407       .  S
C555        C556   1.203       .  T
C557        C558   1.202       .  T
C558        C559   1.406       .  S
C559        C560   1.202       .  T
C561        C562   1.202       .  T
C562        C563   1.406       .  S
C563        C564   1.202       .  T
C565        C566   1.233       .  T
C567        C568   1.210   1_655  T
C569        C570   1.201       .  T
C570        C571   1.404       .  S
C571        C572   1.201       .  T
C573        C574   1.200       .  T
C574        C575   1.404       .  S
C575        C576   1.201       .  T
C577        C578   1.228   1_565  T
C579        C580   1.201       .  T
C580        C581   1.404       .  S
C581        C582   1.201       .  T
C583        C584   1.235       .  T
C585        C586   1.235       .  T
C587        C588   1.222       .  T
C589        C590   1.234       .  T
C591        C592   1.239       .  T
C593        C594   1.229       .  T
C595        C596   1.237       .  T
C597        C598   1.232       .  T
C599        C600   1.227       .  T
C601        C602   1.225       .  T
C603        C604   1.220       .  T
C605        C606   1.233       .  T
C607        C608   1.221       .  T
C609        C610   1.226       .  T
C611        C612   1.217       .  T
C613        C614   1.234       .  T
C615        C616   1.237       .  T
C617        C618   1.227       .  T
C619        C620   1.228       .  T
C621        C622   1.234       .  T
C623        C624   1.230       .  T
C625        C626   1.232       .  T
C627        C628   1.238       .  T
C629        C630   1.226       .  T
