geometry optimzed in LAMMPS
_audit_creation_date              2020-11-30 
_audit_creation_method            'lammps2cif' 
_symmetry_space_group_name_H-M    'P1' 
_symmetry_Int_Tables_number       1 
_symmetry_cell_setting            triclinic 
loop_ 
_symmetry_equiv_pos_as_xyz 
  x,y,z 
_cell_length_a                    42.33602079286127 
_cell_length_b                    43.21105225041264 
_cell_length_c                    43.555296043430204 
_cell_angle_alpha                 90.21304725355625 
_cell_angle_beta                  89.89809311927945 
_cell_angle_gamma                 89.90930792427035 
loop_ 
_atom_site_label 
_atom_site_type_symbol 
_atom_site_fract_x 
_atom_site_fract_y 
_atom_site_fract_z 
_atom_site_charge 
O1          O  0.48497054  0.54125730  0.56906140    -0.77830
O2          O  0.51581938  0.44077327  0.47265730    -0.62520
O3          O  0.51925022  0.51343315  0.52143888    -1.09120
C4          C  0.44027007  0.54724074  0.45203097     1.09060
O5          O  0.51846906  0.46887272  0.43022265    -0.75720
O6          O  0.51232676  0.52985470  0.42804342    -0.63310
Ni7        Ni  0.51977327  0.51297044  0.56507157     1.34870
C8          C  0.52456240  0.55010718  0.44539330     0.87800
O9          O  0.54951205  0.45612792  0.52127670    -0.76260
O10         O  0.55409477  0.48396226  0.56495163    -0.86540
C11         C  0.52644148  0.44541283  0.44584177     0.87370
O12         O  0.49040330  0.48038011  0.57091349    -0.64740
O13         O  0.44853981  0.52523735  0.43417032    -0.84030
C14         C  0.47792184  0.46024276  0.55362718     0.88200
C15         C  0.56168967  0.46153164  0.54734909     1.09770
H16         H  0.46394841  0.48677127  0.48323442     0.41570
O17         O  0.48368495  0.49636550  0.47753069    -1.06690
O18         O  0.51713795  0.55365823  0.47365209    -0.63340
Ni19       Ni  0.48597743  0.53381334  0.50007607     1.26350
O20         O  0.48529698  0.45642825  0.52538351    -0.63570
O21         O  0.45273091  0.55309492  0.47791018    -0.75860
C22         C  0.47654968  0.56447655  0.55333821     0.87580
O23         O  0.48668290  0.56895576  0.52632711    -0.63040
Ni24       Ni  0.48335773  0.49681444  0.43395033     1.27450
Ni25       Ni  0.51672470  0.47587260  0.49896405     1.26060
H26         H  0.53895231  0.52300948  0.51559186     0.42130
O27         O  0.47058499  0.21442105  0.18401311    -0.77830
O28         O  0.52018431  0.32005318  0.26829015    -0.62520
O29         O  0.51302639  0.24509701  0.22295195    -1.09120
C30         C  0.44868487  0.21430535  0.30726238     1.09060
O31         O  0.52828041  0.29427765  0.31160974    -0.75720
O32         O  0.52318439  0.23317403  0.31685517    -0.63310
Ni33       Ni  0.50450772  0.24383639  0.18008961     1.34870
C34         C  0.53154417  0.21173622  0.29869063     0.87800
O35         O  0.54469132  0.30112605  0.21546409    -0.76260
O36         O  0.53725746  0.27357817  0.17198371    -0.86540
C37         C  0.53329495  0.31730834  0.29430126     0.87370
O38         O  0.47391036  0.27589086  0.17910283    -0.64740
O39         O  0.45956051  0.23735823  0.32217488    -0.84030
C40         C  0.46760905  0.29868192  0.19639712     0.88200
C41         C  0.54983222  0.29561426  0.18718743     1.09770
H42         H  0.46580835  0.27473178  0.26865853     0.41570
O43         O  0.48609001  0.26490685  0.27156736    -1.06690
O44         O  0.51947009  0.20736462  0.27225441    -0.63340
Ni45       Ni  0.48423254  0.22616119  0.25089876     1.26350
O46         O  0.48116522  0.30377026  0.22211957    -0.63570
O47         O  0.45580737  0.20787553  0.27961106    -0.75860
C48         C  0.46666108  0.19152560  0.20180202     0.87580
O49         O  0.48087183  0.18938397  0.22722354    -0.63040
Ni50       Ni  0.49342076  0.26601502  0.31473488     1.27450
Ni51       Ni  0.51560369  0.28358424  0.24396212     1.26060
H52         H  0.53336995  0.23522686  0.22524104     0.42130
C53         C  0.81021211  0.78279153  0.81293417     0.06190
C54         C  0.82353002  0.79483110  0.78576254    -0.09960
C55         C  0.81030874  0.82105950  0.77148624     0.03690
C56         C  0.78364657  0.83531172  0.78453504    -0.08480
C57         C  0.76998512  0.82377640  0.81154927     0.06190
C58         C  0.78335947  0.79748346  0.82572415    -0.07900
H59         H  0.84421856  0.78387813  0.77580428     0.11780
H60         H  0.77354478  0.85557977  0.77366667     0.09310
H61         H  0.77296642  0.78854932  0.84664416     0.09160
C62         C  0.76475156  0.97018196  0.94938975     0.06190
C63         C  0.77668456  0.95585838  0.97576821    -0.09960
C64         C  0.80413887  0.96712665  0.98981706     0.03690
C65         C  0.81970091  0.99287608  0.97745459    -0.08480
C66         C  0.80789160  0.00735138  0.95106448     0.06190
C67         C  0.78038211  0.99595776  0.93705913    -0.07900
H68         H  0.76487102  0.93571330  0.98510301     0.11780
H69         H  0.84112509  0.00140475  0.98813468     0.09310
H70         H  0.77139378  0.00687110  0.91646138     0.09160
C71         C  0.99041417  0.81802469  0.95080359     0.06190
C72         C  0.97683748  0.83323425  0.97619424    -0.09960
C73         C  0.95065981  0.82018838  0.99120811     0.03690
C74         C  0.93819710  0.79204341  0.98075477    -0.08480
C75         C  0.95177353  0.77699626  0.95545830     0.06190
C76         C  0.97784982  0.78993557  0.94057762    -0.07900
H77         H  0.98632265  0.85519130  0.98396786     0.11780
H78         H  0.91767409  0.78214523  0.99194538     0.09310
H79         H  0.98801190  0.77841680  0.92069857     0.09160
C80         C  0.95091810  0.96577917  0.76892802     0.06190
C81         C  0.93791136  0.99330517  0.78089598    -0.09960
C82         C  0.95127761  0.00730370  0.80703235     0.03690
C83         C  0.97756942  0.99373597  0.82111356    -0.08480
C84         C  0.99056229  0.96635667  0.80934510     0.06190
C85         C  0.97726159  0.95241982  0.78326165    -0.07900
H86         H  0.91734789  0.00356906  0.77015523     0.11780
H87         H  0.98769729  0.00429441  0.84146788     0.10270
H88         H  0.98719678  0.93105466  0.77432587     0.09160
O89         O  0.07190079  0.84895744  0.87733808    -0.71360
O90         O  0.13715470  0.89442459  0.83560949    -0.71390
O91         O  0.13620099  0.84605153  0.87396393    -0.71450
O92         O  0.07279917  0.89687381  0.83752011    -0.71500
O93         O  0.07522548  0.92986685  0.87703175    -0.71430
O94         O  0.13954609  0.87900610  0.91346379    -0.71410
O95         O  0.13950380  0.92735768  0.87519878    -0.71380
O96         O  0.07538784  0.88196548  0.91676125    -0.71450
Ni97       Ni  0.10431072  0.87040170  0.85466256     1.25410
Ni98       Ni  0.10743559  0.90571416  0.89703650     1.25360
C99         C  0.06294168  0.85834558  0.90395140     0.90820
C100        C  0.14961955  0.91775095  0.84925275     0.90750
C101        C  0.14899351  0.85475601  0.89905303     0.90780
C102        C  0.06341093  0.92139969  0.85125000     0.90950
O103        O  0.82988031  0.89310608  0.06850784    -0.71360
O104        O  0.86921018  0.84299441  0.13003940    -0.71390
O105        O  0.82379443  0.88678730  0.13045095    -0.71450
O106        O  0.87559520  0.84925542  0.06821203    -0.71500
O107        O  0.91214146  0.88578831  0.07527509    -0.71430
O108        O  0.86036294  0.92330692  0.13750888    -0.71410
O109        O  0.90576857  0.87954780  0.13707986    -0.71380
O110        O  0.86642809  0.92963941  0.07557386    -0.71450
Ni111      Ni  0.84830580  0.86673150  0.09902397     1.25410
Ni112      Ni  0.88748483  0.90588172  0.10660598     1.25360
C113        C  0.84190177  0.91938411  0.06175068     0.90820
C114        C  0.89363471  0.85334653  0.14389797     0.90750
C115        C  0.83384662  0.91094585  0.14442222     0.90780
C116        C  0.90222697  0.86150380  0.06143851     0.90950
O117        O  0.87624499  0.85094938  0.68460526    -0.71360
O118        O  0.92179500  0.89623224  0.62304526    -0.71390
O119        O  0.92099208  0.89570395  0.68562887    -0.71450
O120        O  0.87634058  0.85202549  0.62157963    -0.71500
O121        O  0.83897894  0.88849262  0.62215738    -0.71430
O122        O  0.88348931  0.93205272  0.68569843    -0.71410
O123        O  0.88447690  0.93275143  0.62312446    -0.71380
O124        O  0.83876085  0.88728368  0.68522135    -0.71450
Ni125      Ni  0.90011663  0.87238380  0.65365781     1.25410
Ni126      Ni  0.86004271  0.91138102  0.65402163     1.25360
C127        C  0.85056239  0.86203700  0.69566864     0.90820
C128        C  0.91078714  0.92189119  0.61308107     0.90750
C129        C  0.90929330  0.92097543  0.69627397     0.90780
C130        C  0.85058330  0.86349346  0.61101972     0.90950
O131        O  0.92415003  0.69536335  0.88743873    -0.71360
O132        O  0.88286089  0.63493670  0.83727603    -0.71390
O133        O  0.88014174  0.69805789  0.84241523    -0.71450
O134        O  0.92683599  0.63250319  0.88226756    -0.71500
O135        O  0.88875666  0.62826983  0.91743378    -0.71430
O136        O  0.84199951  0.69401227  0.87752307    -0.71410
O137        O  0.84469881  0.63087443  0.87249929    -0.71380
O138        O  0.88597439  0.69118417  0.92263571    -0.71450
Ni139      Ni  0.90482586  0.66536291  0.86108538     1.25410
Ni140      Ni  0.86396242  0.66091802  0.89874589     1.25360
C141        C  0.91162977  0.70335528  0.91301843     0.90820
C142        C  0.85733067  0.62263415  0.84705743     0.90750
C143        C  0.85366551  0.70719613  0.85367538     0.90780
C144        C  0.91543334  0.61951354  0.90629095     0.90950
O145        O  0.68439674  0.89657486  0.83525104    -0.71360
O146        O  0.61739128  0.94384028  0.87408493    -0.71390
O147        O  0.68183477  0.94180615  0.87856036    -0.71450
O148        O  0.61985564  0.89938727  0.83021983    -0.71500
O149        O  0.61559093  0.86333146  0.86656903    -0.71430
O150        O  0.67789918  0.90576512  0.91494823    -0.71410
O151        O  0.61361961  0.90765120  0.91030185    -0.71380
O152        O  0.67992249  0.86067485  0.87165824    -0.71450
Ni153      Ni  0.65103512  0.92168371  0.85319825     1.25410
Ni154      Ni  0.64661390  0.88307256  0.89212118     1.25360
C155        C  0.69344777  0.87103848  0.84749246     0.90820
C156        C  0.60432239  0.93314346  0.89846904     0.90750
C157        C  0.69033505  0.93057344  0.90439239     0.90780
C158        C  0.60704053  0.87487713  0.84082731     0.90950
O159        O  0.84498107  0.09311433  0.88917601    -0.71360
O160        O  0.89263230  0.15762266  0.85033272    -0.71390
O161        O  0.88840950  0.09500124  0.84360787    -0.71450
O162        O  0.84906791  0.15543862  0.89578950    -0.71500
O163        O  0.88743323  0.14948158  0.93039962    -0.71430
O164        O  0.92688990  0.08890782  0.87805096    -0.71410
O165        O  0.93109149  0.15163589  0.88481475    -0.71380
O166        O  0.88340849  0.08704655  0.92368307    -0.71450
Ni167      Ni  0.86744992  0.12556477  0.86848400     1.25410
Ni168      Ni  0.90863839  0.11909626  0.90545176     1.25360
C169        C  0.85648136  0.07941330  0.91266472     0.90820
C170        C  0.91954155  0.16530856  0.86132397     0.90750
C171        C  0.91372474  0.08159886  0.85256705     0.90780
C172        C  0.86163865  0.16216631  0.92164634     0.90950
O173        O  0.22543828  0.43510944  0.28794128    -0.77830
O174        O  0.26610774  0.53549356  0.19479925    -0.62520
O175        O  0.26359467  0.48215376  0.26368459    -1.09120
C176        C  0.18935353  0.55563124  0.30151570     1.09060
O177        O  0.26873914  0.57721777  0.22448120    -0.75720
O178        O  0.26194565  0.57546671  0.28507752    -0.63310
Ni179      Ni  0.26060970  0.43835949  0.26000818     1.34870
C180        C  0.27189254  0.55639643  0.30480240     0.87800
O181        O  0.29682328  0.48399986  0.20825324    -0.76260
O182        O  0.29520936  0.43742640  0.23137227    -0.86540
C183        C  0.27676509  0.56223285  0.20059534     0.87370
O184        O  0.23131795  0.43711306  0.22710345    -0.64740
O185        O  0.19848388  0.57396522  0.28042871    -0.84030
C186        C  0.22234712  0.45640480  0.20712663     0.88200
C187        C  0.30598754  0.45615181  0.21139160     1.09770
H188        H  0.21166556  0.52531673  0.23811057     0.41570
O189        O  0.23128782  0.52949731  0.24860583    -1.06690
O190        O  0.26297300  0.52824355  0.30641961    -0.63340
Ni191      Ni  0.23111962  0.50462221  0.28448046     1.26350
O192        O  0.23264338  0.48405881  0.20532900    -0.63570
O193        O  0.19912161  0.52804059  0.30480232    -0.75860
C194        C  0.21865658  0.44984085  0.31235461     0.87580
O195        O  0.22965936  0.47652523  0.31790918    -0.63040
Ni196      Ni  0.23320550  0.57341054  0.25190687     1.27450
Ni197      Ni  0.26420435  0.50726535  0.22803035     1.26060
H198        H  0.28327590  0.48586403  0.27425090     0.42130
O199        O  0.18201877  0.28716862  0.54642312    -0.77830
O200        O  0.27063543  0.23575102  0.44234745    -0.62520
O201        O  0.22316413  0.24619023  0.51599225    -1.09120
C202        C  0.31115212  0.30851481  0.54543462     1.09060
O203        O  0.31512571  0.22835452  0.46795402    -0.75720
O204        O  0.31957321  0.23561178  0.52807200    -0.63310
Ni205      Ni  0.17905857  0.25544834  0.51554262     1.34870
C206        C  0.30069893  0.22804443  0.54926446     0.87800
O207        O  0.21652715  0.21291860  0.46101051    -0.76260
O208        O  0.17063144  0.22523188  0.48399426    -0.86540
C209        C  0.29698195  0.22230366  0.44561677     0.87370
O210        O  0.18153136  0.28686856  0.48572185    -0.64740
O211        O  0.32609528  0.29740171  0.52251309    -0.84030
C212        C  0.19935726  0.29104040  0.46281334     0.88200
C213        C  0.18677526  0.21085617  0.46379609     1.09770
H214        H  0.27101706  0.29065868  0.48559516     0.41570
O215        O  0.27382560  0.27112806  0.49598237    -1.06690
O216        O  0.27368853  0.24041696  0.55367066    -0.63340
Ni217      Ni  0.25226992  0.27481280  0.53422593     1.26350
O218        O  0.22399300  0.27504835  0.45696660    -0.63570
O219        O  0.28249519  0.30247037  0.55185827    -0.75860
C220        C  0.20045237  0.29248693  0.56873195     0.87580
O221        O  0.22767134  0.28030087  0.57066519    -0.63040
Ni222      Ni  0.31821536  0.26358948  0.49490442     1.27450
Ni223      Ni  0.24551313  0.24175764  0.47817055     1.26060
H224        H  0.22494639  0.22663771  0.52655363     0.42130
O225        O  0.48147102  0.72797122  0.68149254    -0.77830
O226        O  0.52545636  0.82880546  0.77397619    -0.62520
O227        O  0.52085996  0.75530313  0.72586709    -1.09120
C228        C  0.44883784  0.72433980  0.80367249     1.09060
O229        O  0.53151345  0.80137185  0.81654768    -0.75720
O230        O  0.52518013  0.73987820  0.81854872    -0.63310
Ni231      Ni  0.51689466  0.75585519  0.68226621     1.34870
C232        C  0.53269409  0.71808315  0.80043494     0.87800
O233        O  0.55347685  0.81163678  0.72256467    -0.76260
O234        O  0.55139226  0.78449344  0.67837301    -0.86540
C235        C  0.53740492  0.82510127  0.80038417     0.87370
O236        O  0.48783833  0.78905759  0.67963622    -0.64740
O237        O  0.46118764  0.74507190  0.82075789    -0.84030
C238        C  0.47912240  0.81048155  0.69762468     0.88200
C239        C  0.56174412  0.80660074  0.69496390     1.09770
H240        H  0.47118122  0.78488559  0.76980975     0.41570
O241        O  0.49091909  0.77418930  0.77317981    -1.06690
O242        O  0.52090485  0.71459358  0.77368016    -0.63340
Ni243      Ni  0.48869878  0.73662741  0.75049250     1.26350
O244        O  0.48962426  0.81408747  0.72488335    -0.63570
O245        O  0.45670640  0.71916937  0.77594245    -0.75860
C246        C  0.47403913  0.70490142  0.69789927     0.87580
O247        O  0.48493884  0.70114033  0.72470728    -0.63040
Ni248      Ni  0.49606292  0.77332859  0.81658346     1.27450
Ni249      Ni  0.52242262  0.79318541  0.74827951     1.26060
H250        H  0.54053665  0.74470624  0.72982197     0.42130
O251        O  0.22352158  0.82911905  0.96909731    -0.77830
O252        O  0.26193466  0.73057156  0.06584188    -0.62520
O253        O  0.26194697  0.78469926  0.99735992    -1.09120
C254        C  0.19591926  0.70745080  0.95376136     1.09060
O255        O  0.26959788  0.68953280  0.03604956    -0.75720
O256        O  0.26760717  0.69091046  0.97538853    -0.63310
Ni257      Ni  0.25475493  0.82804364  0.00102320     1.34870
C258        C  0.27946610  0.71089455  0.95763177     0.87800
O259        O  0.28979230  0.78397588  0.05513674    -0.76260
O260        O  0.28495403  0.83116175  0.03370683    -0.86540
C261        C  0.27481475  0.70461583  0.06053969     0.87370
O262        O  0.22116552  0.82603332  0.02975900    -0.64740
O263        O  0.20360298  0.68962395  0.97576626    -0.84030
C264        C  0.21246296  0.80615526  0.04925990     0.88200
C265        C  0.29598050  0.81266047  0.05372710     1.09770
H266        H  0.21079585  0.73847923  0.01794699     0.41570
O267        O  0.23160616  0.73530684  0.00936496    -1.06690
O268        O  0.26956351  0.73872164  0.95548125    -0.63340
Ni269      Ni  0.23368291  0.76019673  0.97358757     1.26350
O270        O  0.22578502  0.77993064  0.05285493    -0.63570
O271        O  0.20571457  0.73496058  0.95045324    -0.75860
C272        C  0.22028501  0.81389222  0.94436109     0.87580
O273        O  0.23387961  0.78811058  0.93996880    -0.63040
Ni274      Ni  0.23612393  0.69159416  0.00636526     1.27450
Ni275      Ni  0.26090208  0.75912347  0.03273058     1.26060
H276        H  0.28285897  0.78270111  0.98866671     0.42130
O277        O  0.03363190  0.44633623  0.96292515    -0.77830
O278        O  0.98874069  0.53544871  0.06450038    -0.62520
O279        O  0.99180606  0.48657519  0.99227155    -1.09120
C280        C  0.05685241  0.56825905  0.95682451     1.09060
O281        O  0.97944106  0.57752378  0.03684181    -0.75720
O282        O  0.98524386  0.58267054  0.97614894    -0.63310
Ni283      Ni  0.00004572  0.44338715  0.99232787     1.34870
C284        C  0.97423829  0.56431574  0.95613001     0.87800
O285        O  0.96338038  0.48159867  0.04930753    -0.76260
O286        O  0.96752053  0.43705727  0.02221016    -0.86540
C287        C  0.97412662  0.56069751  0.06010211     0.87370
O288        O  0.03095446  0.44196539  0.02405524    -0.64740
O289        O  0.04880901  0.58404382  0.98038745    -0.84030
C290        C  0.03913219  0.46021260  0.04543180     0.88200
C291        C  0.95685661  0.45333870  0.04437839     1.09770
H292        H  0.04108891  0.53223973  0.01715335     0.41570
O293        O  0.02034486  0.53556172  0.00856425    -1.06690
O294        O  0.98355597  0.53616950  0.95311995    -0.63340
Ni295      Ni  0.01951189  0.51362288  0.97090652     1.26350
O296        O  0.02700230  0.48717133  0.04922194    -0.63570
O297        O  0.04724778  0.54116218  0.95068000    -0.75860
C298        C  0.03658984  0.46283863  0.93907034     0.87580
O299        O  0.02128990  0.48783620  0.93551767    -0.63040
Ni300      Ni  0.01462915  0.57913978  0.00899137     1.27450
Ni301      Ni  0.99171016  0.50906185  0.02961969     1.26060
H302        H  0.97099564  0.48884814  0.98349779     0.42130
O303        O  0.23263940  0.94173914  0.78256226    -0.77830
O304        O  0.27374547  0.04166332  0.69024963    -0.62520
O305        O  0.27131528  0.98882953  0.75945512    -1.09120
C306        C  0.19748509  0.06194285  0.79809111     1.09060
O307        O  0.27525470  0.08403974  0.71920989    -0.75720
O308        O  0.27130339  0.08119964  0.77966381    -0.63310
Ni309      Ni  0.26913484  0.94502730  0.75634824     1.34870
C310        C  0.28101513  0.06204229  0.79940426     0.87800
O311        O  0.30441487  0.99008952  0.70406206    -0.76260
O312        O  0.30490654  0.94450182  0.72923400    -0.86540
C313        C  0.28358438  0.06881422  0.69558888     0.87370
O314        O  0.24163884  0.94278340  0.72213157    -0.64740
O315        O  0.20738053  0.08071819  0.77776436    -0.84030
C316        C  0.23183036  0.96197634  0.70244939     0.88200
C317        C  0.31464352  0.96271301  0.70829480     1.09770
H318        H  0.21929420  0.03198648  0.73368011     0.41570
O319        O  0.23889014  0.03607092  0.74425854    -1.06690
O320        O  0.27058803  0.03447111  0.80209138    -0.63340
Ni321      Ni  0.23862533  0.01100602  0.78007728     1.26350
O322        O  0.24044450  0.99020275  0.70132751    -0.63570
O323        O  0.20641249  0.03401799  0.80043445    -0.75860
C324        C  0.22506166  0.95643460  0.80675767     0.87580
O325        O  0.23689839  0.98257549  0.81316510    -0.63040
Ni326      Ni  0.24093345  0.08000178  0.74792542     1.27450
Ni327      Ni  0.27189097  0.01369679  0.72373901     1.26060
H328        H  0.29093976  0.99284509  0.77000837     0.42130
O329        O  0.68061818  0.78878297  0.52949750    -0.77830
O330        O  0.77867388  0.73565044  0.43882176    -0.62520
O331        O  0.72538093  0.74615433  0.50794823    -1.09120
C332        C  0.80678204  0.81440047  0.54266775     1.09060
O333        O  0.82121021  0.73125444  0.46835427    -0.75720
O334        O  0.81951063  0.74014437  0.52901804    -0.63310
Ni335      Ni  0.68088594  0.75168170  0.50466438     1.34870
C336        C  0.79949550  0.73483232  0.54994075     0.87800
O337        O  0.72327933  0.71079369  0.45355045    -0.76260
O338        O  0.67688863  0.71566907  0.47862611    -0.86540
C339        C  0.80535916  0.72387683  0.44470533     0.87370
O340        O  0.68100356  0.77698165  0.46929655    -0.64740
O341        O  0.82468792  0.80182766  0.52257850    -0.84030
C342        C  0.70117917  0.78334191  0.44882287     0.88200
C343        C  0.69427666  0.70380218  0.45767563     1.09770
H344        H  0.77376118  0.79165059  0.47935240     0.41570
O345        O  0.77614649  0.77282214  0.49102945    -1.06690
O346        O  0.77197191  0.74667251  0.55105308    -0.63340
Ni347      Ni  0.75083478  0.77767431  0.52671084     1.26350
O348        O  0.72924842  0.77275331  0.44822256    -0.63570
O349        O  0.77740366  0.80853863  0.54536808    -0.75860
C350        C  0.69655710  0.79648741  0.55299753     0.87580
O351        O  0.72235641  0.78345229  0.55969211    -0.63040
Ni352      Ni  0.82058900  0.76705373  0.49487472     1.27450
Ni353      Ni  0.75041804  0.74141300  0.47213630     1.26060
H354        H  0.72800181  0.72734083  0.51960239     0.42130
O355        O  0.02018830  0.82244419  0.29148694    -0.77830
O356        O  0.97505673  0.72587644  0.19327236    -0.62520
O357        O  0.98041920  0.77865190  0.26323577    -1.09120
C358        C  0.05074240  0.70097332  0.29990945     1.09060
O359        O  0.97211771  0.68367688  0.22209386    -0.75720
O360        O  0.97931424  0.68345325  0.28244993    -0.63310
Ni361      Ni  0.98739648  0.82204392  0.26064636     1.34870
C362        C  0.96762697  0.70268746  0.30128078     0.87800
O363        O  0.94755546  0.77921112  0.20776499    -0.76260
O364        O  0.95553814  0.82606833  0.22934082    -0.86540
C365        C  0.96411775  0.69907465  0.19861814     0.87370
O366        O  0.01946023  0.82043150  0.23029550    -0.64740
O367        O  0.04298064  0.68413109  0.27706878    -0.84030
C368        C  0.02585372  0.80173126  0.20873094     0.88200
C369        C  0.94228232  0.80813842  0.20993507     1.09770
H370        H  0.03055294  0.73417617  0.23745770     0.41570
O371        O  0.01056128  0.73007099  0.24733621    -1.06690
O372        O  0.97614126  0.73094473  0.30333634    -0.63340
Ni373      Ni  0.01046218  0.75365251  0.28426874     1.26350
O374        O  0.01170529  0.77594819  0.20459438    -0.63570
O375        O  0.04011407  0.72798432  0.30495303    -0.75860
C376        C  0.02456975  0.80641761  0.31552689     0.87580
O377        O  0.01170886  0.78023139  0.31911305    -0.63040
Ni378      Ni  0.00794432  0.68610095  0.24909457     1.27450
Ni379      Ni  0.97878848  0.75398253  0.22701312     1.26060
H380        H  0.96022082  0.77644015  0.27333346     0.42130
O381        O  0.56586958  0.97849136  0.03443062    -0.77830
O382        O  0.46803516  0.02830567  0.94311846    -0.62520
O383        O  0.51979802  0.02021102  0.01355728    -1.09120
C384        C  0.44024345  0.95200599  0.04717490     1.09060
O385        O  0.42508476  0.03374807  0.97199704    -0.75720
O386        O  0.42670379  0.02741349  0.03291928    -0.63310
Ni387      Ni  0.56452002  0.01641692  0.01114468     1.34870
C388        C  0.44550644  0.03143361  0.05511502     0.87800
O389        O  0.52174351  0.05438138  0.95947603    -0.76260
O390        O  0.56694723  0.05346901  0.98683603    -0.86540
C391        C  0.44123922  0.04035176  0.94832947     0.87370
O392        O  0.56730915  0.99237668  0.97464932    -0.64740
O393        O  0.42172588  0.96554659  0.02845563    -0.84030
C394        C  0.54796554  0.98394128  0.95415403     0.88200
C395        C  0.54951472  0.06376339  0.96525491     1.09770
H396        H  0.47242295  0.97350309  0.98408416     0.41570
O397        O  0.47004570  0.99240488  0.99580980    -1.06690
O398        O  0.47254798  0.01831491  0.05706594    -0.63340
Ni399      Ni  0.49522733  0.98814523  0.03161402     1.26350
O400        O  0.51888320  0.99212888  0.95381206    -0.63570
O401        O  0.46980018  0.95651990  0.04876583    -0.75860
C402        C  0.55013670  0.96995320  0.05776820     0.87580
O403        O  0.52382073  0.98216189  0.06462424    -0.63040
Ni404      Ni  0.42569014  0.99903048  0.99967184     1.27450
Ni405      Ni  0.49557157  0.02350504  0.97716516     1.26060
H406        H  0.51603229  0.03898679  0.02513491     0.42130
C407        C  0.29226275  0.76783091  0.30759379     0.06190
C408        C  0.30687990  0.78360227  0.28345681    -0.09960
C409        C  0.29440245  0.81178371  0.27332713     0.03690
C410        C  0.26735489  0.82413550  0.28721752    -0.08480
C411        C  0.25282901  0.80830761  0.31134681     0.06190
C412        C  0.26522874  0.78015947  0.32153552    -0.07900
H413        H  0.32815162  0.77428962  0.27299528     0.11780
H414        H  0.25797093  0.84618973  0.27963337     0.09310
H415        H  0.25427192  0.76822346  0.34065146     0.09160
O416        O  0.36610574  0.68768094  0.41842355    -0.71360
O417        O  0.31723701  0.62364325  0.37982497    -0.71390
O418        O  0.36202850  0.62518394  0.42339120    -0.71450
O419        O  0.32076037  0.68628351  0.37475390    -0.71500
O420        O  0.35782059  0.68122824  0.33847658    -0.71430
O421        O  0.39910260  0.62012419  0.38708956    -0.71410
O422        O  0.35434569  0.61863367  0.34362062    -0.71380
O423        O  0.40309976  0.68251289  0.38214338    -0.71450
Ni424      Ni  0.34017757  0.65593920  0.40039145     1.25410
Ni425      Ni  0.37992183  0.65047287  0.36152567     1.25360
C426        C  0.39258546  0.69557498  0.40652895     0.90820
C427        C  0.32817101  0.61029628  0.35574037     0.90750
C428        C  0.38694047  0.61230904  0.41279005     0.90780
C429        C  0.33267804  0.69393599  0.34888607     0.90950
C430        C  0.48947762  0.95086510  0.31123697     0.06190
C431        C  0.47835122  0.97688655  0.32740103    -0.09960
C432        C  0.45151764  0.99276234  0.31691855     0.03690
C433        C  0.43595033  0.98258515  0.29039226    -0.08480
C434        C  0.44708249  0.95665111  0.27438869     0.06190
C435        C  0.47381265  0.94083993  0.28478141    -0.07900
H436        H  0.49022980  0.98447555  0.34812996     0.11780
H437        H  0.41495345  0.99454362  0.28248354     0.09310
H438        H  0.48214121  0.92048129  0.27254300     0.09160
O439        O  0.57080788  0.87413191  0.33162277    -0.71360
O440        O  0.63543907  0.82483201  0.36944832    -0.71390
O441        O  0.57125406  0.82863090  0.37416103    -0.71450
O442        O  0.63484773  0.86948349  0.32670922    -0.71500
O443        O  0.63999384  0.90502022  0.36375100    -0.71430
O444        O  0.57617055  0.86417167  0.41118999    -0.71410
O445        O  0.64016988  0.86055026  0.40636945    -0.71380
O446        O  0.57620153  0.90953211  0.36874109    -0.71450
Ni447      Ni  0.60284669  0.84797224  0.34913663     1.25410
Ni448      Ni  0.60827913  0.88608423  0.38882252     1.25360
C449        C  0.56284772  0.89982428  0.34427572     0.90820
C450        C  0.64876360  0.83515547  0.39379424     0.90750
C451        C  0.56302210  0.83985990  0.40019996     0.90780
C452        C  0.64835222  0.89341739  0.33788771     0.90950
O453        O  0.37498519  0.92691812  0.19225823    -0.71360
O454        O  0.33087306  0.87883020  0.13244248    -0.71390
O455        O  0.32983772  0.88277745  0.19450566    -0.71450
O456        O  0.37549668  0.92225882  0.12983191    -0.71500
O457        O  0.41276093  0.88565621  0.13245112    -0.71430
O458        O  0.36717774  0.84625273  0.19696116    -0.71410
O459        O  0.36820105  0.84226077  0.13497898    -0.71380
O460        O  0.41223356  0.89031781  0.19473953    -0.71450
Ni461      Ni  0.35146856  0.90408955  0.16227842     1.25410
Ni462      Ni  0.39146749  0.86486657  0.16500946     1.25360
C463        C  0.40068793  0.91627192  0.20346072     0.90820
C464        C  0.34290528  0.85323625  0.12334308     0.90750
C465        C  0.34099001  0.85788138  0.20604689     0.90780
C466        C  0.40076268  0.90950230  0.11971438     0.90950
C467        C  0.25988367  0.94932469  0.45471052     0.06190
C468        C  0.27170017  0.97645183  0.44126857    -0.09960
C469        C  0.29950894  0.99003638  0.45248273     0.03690
C470        C  0.31549120  0.97645418  0.47716224    -0.08480
C471        C  0.30386559  0.94937553  0.49067173     0.06190
C472        C  0.27604132  0.93583942  0.47943523    -0.07900
H473        H  0.25950445  0.98675342  0.42195618     0.11780
H474        H  0.33714048  0.98677337  0.48564546     0.09310
H475        H  0.26716515  0.91473852  0.48969577     0.09160
C476        C  0.48787944  0.80143369  0.44502686     0.06190
C477        C  0.47124269  0.77664132  0.43186146    -0.09960
C478        C  0.44373224  0.76542567  0.44600089     0.03690
C479        C  0.43293041  0.77905992  0.47333992    -0.08480
C480        C  0.44949109  0.80380925  0.48653612     0.06190
C481        C  0.47694330  0.81494839  0.47236325    -0.07900
H482        H  0.47947717  0.76634112  0.41055814     0.11780
H483        H  0.41150491  0.77065985  0.48413277     0.09310
H484        H  0.48952710  0.83435755  0.48236360     0.09160
O485        O  0.38207856  0.92155231  0.56648068    -0.71360
O486        O  0.43258789  0.88354221  0.62916358    -0.71390
O487        O  0.42663443  0.87659041  0.56711434    -0.71450
O488        O  0.38857114  0.92847678  0.62823474    -0.71500
O489        O  0.35101293  0.89297134  0.63553091    -0.71430
O490        O  0.38910271  0.84107402  0.57429619    -0.71410
O491        O  0.39501421  0.84807429  0.63633574    -0.71380
O492        O  0.34458081  0.88604545  0.57382069    -0.71450
Ni493      Ni  0.40883452  0.90378360  0.59744306     1.25410
Ni494      Ni  0.36859233  0.86574839  0.60523285     1.25360
C495        C  0.35510336  0.90992181  0.55986273     0.90820
C496        C  0.42167875  0.85999682  0.64345074     0.90750
C497        C  0.41387525  0.85062536  0.56036741     0.90780
C498        C  0.36392795  0.91888712  0.64221765     0.90950
O499        O  0.41376406  0.07734880  0.38372230    -0.71360
O500        O  0.35980921  0.14015362  0.41758105    -0.71390
O501        O  0.36404178  0.07733146  0.42287265    -0.71450
O502        O  0.40911836  0.13999036  0.37873318    -0.71500
O503        O  0.37596205  0.13448688  0.33924868    -0.71430
O504        O  0.33090347  0.07200394  0.38338172    -0.71410
O505        O  0.32667430  0.13482128  0.37806885    -0.71380
O506        O  0.38055407  0.07196885  0.34428430    -0.71450
Ni507      Ni  0.38785229  0.10885466  0.40219503     1.25410
Ni508      Ni  0.35233228  0.10304852  0.35986657     1.25360
C509        C  0.40581972  0.06430355  0.35847103     0.90820
C510        C  0.33508313  0.14846008  0.40284182     0.90750
C511        C  0.34034733  0.06413905  0.41014007     0.90780
C512        C  0.39940278  0.14790639  0.35207727     0.90950
O513        O  0.17278137  0.83596402  0.38434100    -0.71360
O514        O  0.11002477  0.87587229  0.43367818    -0.71390
O515        O  0.10876467  0.83291187  0.38908926    -0.71450
O516        O  0.17427846  0.87939314  0.42915451    -0.71500
O517        O  0.16982366  0.91649816  0.39388299    -0.71430
O518        O  0.10443980  0.87012739  0.35388817    -0.71410
O519        O  0.10567967  0.91304140  0.39838097    -0.71380
O520        O  0.16833488  0.87314503  0.34908086    -0.71450
Ni521      Ni  0.14171586  0.85472846  0.41035927     1.25410
Ni522      Ni  0.13696832  0.89457254  0.37257105     1.25360
C523        C  0.18083421  0.84807634  0.35876336     0.90820
C524        C  0.09680605  0.90032001  0.42340683     0.90750
C525        C  0.09541200  0.84436522  0.36534187     0.90780
C526        C  0.18306913  0.90532245  0.41782170     0.90950
O527        O  0.77114436  0.03987097  0.18086530    -0.77830
O528        O  0.73016750  0.94117795  0.27340403    -0.62520
O529        O  0.73152118  0.01450686  0.22599343    -1.09120
C530        C  0.79808484  0.05135430  0.30426850     1.09060
O531        O  0.72134354  0.96803758  0.31610792    -0.75720
O532        O  0.72042442  0.02979500  0.31455460    -0.63310
Ni533      Ni  0.73433619  0.01361049  0.18232409     1.34870
C534        C  0.71612871  0.05275611  0.29709588     0.87800
O535        O  0.70151081  0.95702594  0.22234836    -0.76260
O536        O  0.69834289  0.98645764  0.17989966    -0.86540
C537        C  0.71752939  0.94405815  0.29959662     0.87370
O538        O  0.76184822  0.97910016  0.17838029    -0.64740
O539        O  0.78382044  0.03228264  0.32167901    -0.84030
C540        C  0.77355069  0.95984268  0.19701024     0.88200
C541        C  0.69025978  0.96322082  0.19610771     1.09770
H542        H  0.78153633  0.98689822  0.27170427     0.41570
O543        O  0.76141417  0.99729237  0.27375856    -1.06690
O544        O  0.73144993  0.05722129  0.27228616    -0.63340
Ni545      Ni  0.76353913  0.03400656  0.25003416     1.26350
O546        O  0.76556757  0.95793016  0.22518808    -0.63570
O547        O  0.79495226  0.05250504  0.27527762    -0.75860
C548        C  0.77939496  0.06293163  0.19712254     0.87580
O549        O  0.76733348  0.06826852  0.22320397    -0.63040
Ni550      Ni  0.75315220  0.99988703  0.31664945     1.27450
Ni551      Ni  0.73139551  0.97688909  0.24828813     1.26060
H552        H  0.71164795  0.02459478  0.23043747     0.42130
O553        O  0.72008957  0.19122541  0.97267839    -0.77830
O554        O  0.81715389  0.28408965  0.02632866    -0.62520
O555        O  0.74309195  0.23612037  0.01441840    -1.09120
C556        C  0.71591144  0.31395620  0.94403005     1.09060
O557        O  0.79073410  0.32838521  0.02821025    -0.75720
O558        O  0.72835000  0.32754845  0.02070935    -0.63310
Ni559      Ni  0.74495740  0.19212938  0.00976455     1.34870
C560        C  0.70465085  0.31003920  0.02369156     0.87800
O561        O  0.79593153  0.23363974  0.05220330    -0.76260
O562        O  0.77024787  0.18841925  0.04616068    -0.86540
C563        C  0.81340023  0.31117142  0.03671887     0.87370
O564        O  0.78180133  0.19004225  0.98486517    -0.64740
O565        O  0.73421833  0.33188450  0.95899483    -0.84030
C566        C  0.80409085  0.20866918  0.97920357     0.88200
C567        C  0.79031492  0.20582685  0.05944447     1.09770
H568        H  0.77839302  0.28066022  0.96945314     0.41570
O569        O  0.76530931  0.28383899  0.98739087    -1.06690
O570        O  0.70144621  0.28420721  0.00973736    -0.63340
Ni571      Ni  0.72767669  0.26046357  0.98139267     1.26350
O572        O  0.80609308  0.23572179  0.99067702    -0.63570
O573        O  0.71330627  0.28516005  0.94855512    -0.75860
C574        C  0.69678234  0.20755975  0.96416225     0.87580
O575        O  0.69211198  0.23457829  0.97448503    -0.63040
Ni576      Ni  0.76286454  0.32763492  0.99309532     1.27450
Ni577      Ni  0.78103655  0.25898861  0.01997258     1.26060
H578        H  0.73003662  0.23992983  0.03225777     0.42130
C579        C  0.31075457  0.31624316  0.76561205     0.06190
C580        C  0.28439319  0.32987563  0.77987264    -0.09960
C581        C  0.27018600  0.31560366  0.80527342     0.03690
C582        C  0.28219224  0.28771822  0.81643353    -0.08480
C583        C  0.30846947  0.27393990  0.80250943     0.06190
C584        C  0.32282310  0.28817402  0.77704449    -0.07900
H585        H  0.27514817  0.35165258  0.77142308     0.11780
H586        H  0.27133040  0.27694146  0.83627640     0.09310
H587        H  0.34340632  0.27766666  0.76642615     0.09160
C588        C  0.48762086  0.31115661  0.94722315     0.06190
C589        C  0.47532007  0.28497626  0.93238504    -0.09960
C590        C  0.44911100  0.26956442  0.94471016     0.03690
C591        C  0.43516784  0.28046694  0.97196820    -0.08480
C592        C  0.44747831  0.30666151  0.98682999     0.06190
C593        C  0.47370280  0.32192613  0.97441956    -0.07900
H594        H  0.48591487  0.27680988  0.91115691     0.11780
H595        H  0.41465800  0.26883835  0.98137415     0.09310
H596        H  0.48301830  0.34238025  0.98570153     0.09160
C597        C  0.44624947  0.50453625  0.80780511     0.06190
C598        C  0.43474604  0.49190139  0.78017814    -0.09960
C599        C  0.44943851  0.46570878  0.76721396     0.03690
C600        C  0.47537344  0.45231240  0.78180940    -0.08480
C601        C  0.48671919  0.46474862  0.80926115     0.06190
C602        C  0.47226574  0.49083763  0.82229177    -0.07900
H603        H  0.41436189  0.50211988  0.76908195     0.11780
H604        H  0.48647405  0.43187299  0.77201889     0.09310
H605        H  0.48101226  0.50023095  0.84377644     0.09160
C606        C  0.30917324  0.45741770  0.99011520     0.06190
C607        C  0.28301926  0.44531094  0.97420605    -0.09960
C608        C  0.27045258  0.46126179  0.94889633     0.03690
C609        C  0.28395216  0.48915625  0.93960695    -0.08480
C610        C  0.30995460  0.50129047  0.95522363     0.06190
C611        C  0.32261350  0.48548447  0.98048044    -0.07900
H612        H  0.27269865  0.42352698  0.98129638     0.11780
H613        H  0.27444677  0.50127010  0.91988406     0.09310
H614        H  0.34301144  0.49479074  0.99234599     0.09160
O615        O  0.41469520  0.58920244  0.87505661    -0.71360
O616        O  0.36866976  0.65231175  0.91904183    -0.71390
O617        O  0.37319360  0.58947484  0.92235783    -0.71450
O618        O  0.41055006  0.65195382  0.87235057    -0.71500
O619        O  0.37094351  0.64796410  0.83874246    -0.71430
O620        O  0.33351850  0.58505454  0.88890107    -0.71410
O621        O  0.32916598  0.64778769  0.88542246    -0.71380
O622        O  0.37495534  0.58524421  0.84164064    -0.71450
Ni623      Ni  0.39321524  0.62089216  0.89841084     1.25410
Ni624      Ni  0.35071787  0.61635115  0.86250222     1.25360
C625        C  0.40212869  0.57676745  0.85125573     0.90820
C626        C  0.34148591  0.66057891  0.90903498     0.90750
C627        C  0.34751380  0.57672833  0.91359577     0.90780
C628        C  0.39673190  0.66045270  0.84771503     0.90950
O629        O  0.57221003  0.38146502  0.91606162    -0.71360
O630        O  0.63538077  0.42353223  0.86876036    -0.71390
O631        O  0.57147472  0.42719836  0.87389456    -0.71450
O632        O  0.63622770  0.37880383  0.91082752    -0.71500
O633        O  0.63192803  0.34341277  0.87350598    -0.71430
O634        O  0.56659265  0.39185242  0.83662735    -0.71410
O635        O  0.63049605  0.38819747  0.83148143    -0.71380
O636        O  0.56788193  0.34612140  0.87875742    -0.71450
Ni637      Ni  0.60388952  0.40402892  0.89375339     1.25410
Ni638      Ni  0.59892126  0.36611725  0.85377309     1.25360
C639        C  0.55963597  0.35692098  0.90494575     0.90820
C640        C  0.64397486  0.41200460  0.84292064     0.90750
C641        C  0.55842807  0.41742790  0.84929708     0.90780
C642        C  0.64551279  0.35401150  0.89753474     0.90950
O643        O  0.34426007  0.38503011  0.68223439    -0.71360
O644        O  0.39214991  0.42583221  0.61856139    -0.71390
O645        O  0.34669150  0.38231107  0.61982136    -0.71450
O646        O  0.38888934  0.42977795  0.68099331    -0.71500
O647        O  0.42627101  0.39348934  0.68486346    -0.71430
O648        O  0.38389117  0.34571143  0.62258210    -0.71410
O649        O  0.42933571  0.38937186  0.62232802    -0.71380
O650        O  0.38161877  0.34866099  0.68510311    -0.71450
Ni651      Ni  0.36668669  0.40703441  0.65030480     1.25410
Ni652      Ni  0.40663911  0.36799715  0.65385893     1.25360
C653        C  0.35535909  0.36016846  0.69419048     0.90820
C654        C  0.41842215  0.41382933  0.60975155     0.90750
C655        C  0.35853799  0.35670820  0.61075975     0.90780
C656        C  0.41405674  0.41936389  0.69330607     0.90950
O657        O  0.37875956  0.42099158  0.06997888    -0.71360
O658        O  0.42399619  0.37648375  0.13230098    -0.71390
O659        O  0.42079214  0.37373428  0.06985084    -0.71450
O660        O  0.38222178  0.42361062  0.13240379    -0.71500
O661        O  0.34262464  0.38965259  0.13556227    -0.71430
O662        O  0.38121527  0.33978506  0.07302806    -0.71410
O663        O  0.38444128  0.34254403  0.13555179    -0.71380
O664        O  0.33916789  0.38709753  0.07314010    -0.71450
Ni665      Ni  0.40285439  0.39990722  0.10099416     1.25410
Ni666      Ni  0.36042967  0.36355820  0.10443338     1.25360
C667        C  0.35170444  0.41117852  0.06114165     0.90820
C668        C  0.41143088  0.35249916  0.14441334     0.90750
C669        C  0.40715954  0.34886085  0.06095343     0.90780
C670        C  0.35639730  0.41440755  0.14454401     0.90950
O671        O  0.33469634  0.18894442  0.87036258    -0.71360
O672        O  0.37844371  0.12467549  0.91413224    -0.71390
O673        O  0.38098191  0.18771880  0.91300635    -0.71450
O674        O  0.33161800  0.12590651  0.87259063    -0.71500
O675        O  0.36750229  0.12274759  0.83505793    -0.71430
O676        O  0.41699195  0.18541234  0.87554359    -0.71410
O677        O  0.41438684  0.12236059  0.87658345    -0.71380
O678        O  0.37068026  0.18572176  0.83293568    -0.71450
Ni679      Ni  0.35514948  0.15694054  0.89388863     1.25410
Ni680      Ni  0.39367682  0.15399289  0.85369677     1.25360
C681        C  0.34595368  0.19806048  0.84456885     0.90820
C682        C  0.40314780  0.11254364  0.90194727     0.90750
C683        C  0.40673241  0.19702185  0.90081365     0.90780
C684        C  0.34171763  0.11375700  0.84765323     0.90950
O685        O  0.18847545  0.43232583  0.87407196    -0.71360
O686        O  0.12333629  0.38556971  0.83294843    -0.71390
O687        O  0.12409136  0.43465599  0.87076354    -0.71450
O688        O  0.18766934  0.38410090  0.83432715    -0.71500
O689        O  0.18598460  0.35163391  0.87408583    -0.71430
O690        O  0.12092974  0.40214123  0.91041727    -0.71410
O691        O  0.12184459  0.35313493  0.87275118    -0.71380
O692        O  0.18511517  0.39982362  0.91368573    -0.71450
Ni693      Ni  0.15607881  0.41034915  0.85157538     1.25410
Ni694      Ni  0.15346285  0.37556359  0.89417725     1.25360
C695        C  0.19752882  0.42324668  0.90070490     0.90820
C696        C  0.11144110  0.36214530  0.84685580     0.90750
C697        C  0.11122743  0.42605360  0.89578564     0.90780
C698        C  0.19744569  0.35992219  0.84810617     0.90950
C699        C  0.68981294  0.73487658  0.19563524     0.06190
C700        C  0.71667079  0.72244676  0.18140607    -0.09960
C701        C  0.73117795  0.69597762  0.19329828     0.03690
C702        C  0.71880515  0.68180446  0.21967166    -0.08480
C703        C  0.69189422  0.69411781  0.23416582     0.06190
C704        C  0.67740554  0.72070692  0.22203183    -0.07900
H705        H  0.72611640  0.73320979  0.16089141     0.11780
H706        H  0.72993249  0.66115472  0.22873525     0.09310
H707        H  0.65644769  0.73017408  0.23292181     0.09160
O708        O  0.62459789  0.66453072  0.31789958    -0.71360
O709        O  0.57540371  0.62395756  0.37983732    -0.71390
O710        O  0.62332888  0.66555596  0.38064573    -0.71450
O711        O  0.57745582  0.62237004  0.31702506    -0.71500
O712        O  0.61278739  0.58405264  0.31881950    -0.71430
O713        O  0.65857533  0.62713907  0.38186471    -0.71410
O714        O  0.61060542  0.58552380  0.38162938    -0.71380
O715        O  0.65998044  0.62622019  0.31905181    -0.71450
Ni716      Ni  0.59894143  0.64546423  0.34884764     1.25410
Ni717      Ni  0.63673568  0.60436698  0.35044013     1.25360
C718        C  0.64992964  0.65184116  0.30787479     0.90820
C719        C  0.58496519  0.59830044  0.39108411     0.90750
C720        C  0.64838776  0.65321070  0.39180427     0.90780
C721        C  0.58812334  0.59637440  0.30707446     0.90950
C722        C  0.73582005  0.55776046  0.04595603     0.06190
C723        C  0.72461703  0.57434239  0.02040104    -0.09960
C724        C  0.69792257  0.56384870  0.00420615     0.03690
C725        C  0.68253615  0.53677527  0.01371185    -0.08480
C726        C  0.69362568  0.52027342  0.03916160     0.06190
C727        C  0.72023801  0.53076723  0.05517242    -0.07900
H728        H  0.73639489  0.59541997  0.01336113     0.11780
H729        H  0.66173802  0.52877236  0.00155812     0.09310
H730        H  0.72856747  0.51814184  0.07506597     0.09160
C731        C  0.50659813  0.69971238  0.04838989     0.06190
C732        C  0.51862034  0.68647467  0.02125441    -0.09960
C733        C  0.54541208  0.69929393  0.00709339     0.03690
C734        C  0.56005372  0.72527469  0.02020094    -0.08480
C735        C  0.54797970  0.73837260  0.04726954     0.06190
C736        C  0.52130205  0.72561349  0.06124273    -0.07900
H737        H  0.50745720  0.66615805  0.01145542     0.11780
H738        H  0.58097080  0.73502269  0.00959364     0.09310
H739        H  0.51222643  0.73560504  0.08238741     0.09160
C740        C  0.55345268  0.51695950  0.18920693     0.06190
C741        C  0.56512432  0.52956972  0.21678361    -0.09960
C742        C  0.54968354  0.55482492  0.23082035     0.03690
C743        C  0.52255802  0.56732616  0.21707183    -0.08480
C744        C  0.51087971  0.55480203  0.18955789     0.06190
C745        C  0.52634592  0.52966960  0.17574231    -0.07900
H746        H  0.58623528  0.51996061  0.22711139     0.11780
H747        H  0.51073752  0.58696953  0.22759805     0.09310
H748        H  0.51744268  0.52017219  0.15436008     0.09160
O749        O  0.42680186  0.62303373  0.16306145    -0.71360
O750        O  0.36178623  0.67285223  0.12771890    -0.71390
O751        O  0.36255172  0.62544417  0.16730269    -0.71450
O752        O  0.42593140  0.67000304  0.12215946    -0.71500
O753        O  0.42110609  0.63609385  0.08363492    -0.71430
O754        O  0.35874854  0.59158793  0.12860010    -0.71410
O755        O  0.35707788  0.63897969  0.08913603    -0.71380
O756        O  0.42294808  0.58912546  0.12444315    -0.71450
Ni757      Ni  0.39451142  0.64904452  0.14646349     1.25410
Ni758      Ni  0.38988818  0.61274723  0.10506109     1.25360
C759        C  0.43576596  0.59821369  0.14956090     0.90820
C760        C  0.34810852  0.66356358  0.10327133     0.90750
C761        C  0.34967782  0.60175192  0.15470954     0.90780
C762        C  0.43396125  0.66000972  0.09549185     0.90950
O763        O  0.62314114  0.43554285  0.14980048    -0.71360
O764        O  0.66267341  0.37264326  0.10050664    -0.71390
O765        O  0.66313411  0.43559727  0.10127898    -0.71450
O766        O  0.62310569  0.37260593  0.14880498    -0.71500
O767        O  0.58199029  0.37302799  0.11672426    -0.71430
O768        O  0.62213005  0.43633048  0.06910396    -0.71410
O769        O  0.62169278  0.37315364  0.06830528    -0.71380
O770        O  0.58205110  0.43612235  0.11775626    -0.71450
Ni771      Ni  0.64446552  0.40411134  0.12621645     1.25410
Ni772      Ni  0.60045813  0.40471286  0.09180838     1.25360
C773        C  0.59619366  0.44625649  0.14175800     0.90820
C774        C  0.64845428  0.36226392  0.07669701     0.90750
C775        C  0.64912751  0.44649286  0.07766570     0.90780
C776        C  0.59635448  0.36211202  0.14015906     0.90950
O777        O  0.63172287  0.59589689  0.92104624    -0.71360
O778        O  0.58336650  0.63715957  0.85869381    -0.71390
O779        O  0.63355782  0.59790811  0.85865057    -0.71450
O780        O  0.58173284  0.63507108  0.92119390    -0.71500
O781        O  0.61470024  0.67528956  0.92339508    -0.71430
O782        O  0.66651545  0.63813319  0.86095756    -0.71410
O783        O  0.61631324  0.67737454  0.86092550    -0.71380
O784        O  0.66467796  0.63609947  0.92338414    -0.71450
Ni785      Ni  0.60641723  0.61508048  0.88974604     1.25410
Ni786      Ni  0.64171178  0.65817497  0.89217630     1.25360
C787        C  0.65586697  0.60936292  0.93267720     0.90820
C788        C  0.59187168  0.66407280  0.84968784     0.90750
C789        C  0.65861528  0.61183922  0.84977430     0.90780
C790        C  0.59005417  0.66105188  0.93284914     0.90950
O791        O  0.81797685  0.66529899  0.12485414    -0.71360
O792        O  0.88544099  0.61878543  0.08731935    -0.71390
O793        O  0.82104590  0.61879037  0.08326333    -0.71450
O794        O  0.88227690  0.66601397  0.12727777    -0.71500
O795        O  0.88118775  0.63181883  0.16557786    -0.71430
O796        O  0.81844842  0.58451089  0.12139420    -0.71410
O797        O  0.88300026  0.58448528  0.12548994    -0.71380
O798        O  0.81679652  0.63105822  0.16311501    -0.71450
Ni799      Ni  0.85167699  0.64339258  0.10427857     1.25410
Ni800      Ni  0.84971468  0.60671055  0.14526236     1.25360
C801        C  0.80634390  0.65549426  0.15023052     0.90820
C802        C  0.89593480  0.59466900  0.10107105     0.90750
C803        C  0.80922758  0.59441885  0.09510708     0.90780
C804        C  0.89248110  0.65630472  0.15305142     0.90950
O805        O  0.57689213  0.81791518  0.11857184    -0.71360
O806        O  0.61692452  0.88063150  0.16720495    -0.71390
O807        O  0.57427411  0.88085226  0.12203669    -0.71450
O808        O  0.61961470  0.81754324  0.16465592    -0.71500
O809        O  0.65858161  0.82012530  0.13014758    -0.71430
O810        O  0.61326615  0.88398609  0.08756811    -0.71410
O811        O  0.65593530  0.88318159  0.13268410    -0.71380
O812        O  0.61583961  0.82103321  0.08405722    -0.71450
Ni813      Ni  0.59554368  0.84900515  0.14435405     1.25410
Ni814      Ni  0.63732661  0.85208212  0.10737083     1.25360
C815        C  0.58992776  0.80920632  0.09342248     0.90820
C816        C  0.64232118  0.89297253  0.15706758     0.90750
C817        C  0.58694722  0.89360494  0.09863843     0.90780
C818        C  0.64629272  0.80824993  0.15429967     0.90950
O819        O  0.77296287  0.55038995  0.68295167    -0.77830
O820        O  0.72979512  0.45134504  0.77811513    -0.62520
O821        O  0.73410815  0.52213606  0.72700112    -1.09120
C822        C  0.80570964  0.55730399  0.80390484     1.09060
O823        O  0.72462588  0.48060640  0.81975343    -0.75720
O824        O  0.73229939  0.54165278  0.82095582    -0.63310
Ni825      Ni  0.74014758  0.51957656  0.68374367     1.34870
C826        C  0.72175676  0.56110796  0.80185844     0.87800
O827        O  0.70136707  0.46610031  0.72630461    -0.76260
O828        O  0.70848161  0.48794028  0.67990843    -0.86540
C829        C  0.71770566  0.45667548  0.80420838     0.87370
O830        O  0.77189770  0.48873971  0.68411114    -0.64740
O831        O  0.79613608  0.53521658  0.82083567    -0.84030
C832        C  0.77798595  0.46657566  0.70205174     0.88200
C833        C  0.69620692  0.46787512  0.69764461     1.09770
H834        H  0.78439831  0.49540633  0.77080768     0.41570
O835        O  0.76449982  0.50566927  0.77472479    -1.06690
O836        O  0.73123855  0.56302434  0.77416439    -0.63340
Ni837      Ni  0.76493619  0.54278451  0.75158930     1.26350
O838        O  0.76493696  0.46287491  0.72822381    -0.63570
O839        O  0.79557672  0.56272805  0.77699195    -0.75860
C840        C  0.77816683  0.57432423  0.69913298     0.87580
O841        O  0.76646356  0.57788577  0.72564549    -0.63040
Ni842      Ni  0.76071146  0.50760392  0.81830940     1.27450
Ni843      Ni  0.73271184  0.48550598  0.75097565     1.26060
H844        H  0.71403257  0.53243883  0.72978364     0.42130
O845        O  0.97980974  0.05585771  0.56948837    -0.77830
O846        O  0.01175294  0.94700326  0.48439312    -0.62520
O847        O  0.01668104  0.02294995  0.52726902    -1.09120
C848        C  0.94510805  0.05558036  0.45032479     1.09060
O849        O  0.01916311  0.97102082  0.44005927    -0.75720
O850        O  0.01698823  0.03230327  0.43245655    -0.63310
Ni851      Ni  0.01338213  0.02578342  0.57071692     1.34870
C852        C  0.02870833  0.05370098  0.44877197     0.87800
O853        O  0.04416727  0.96499140  0.53321910    -0.76260
O854        O  0.04650892  0.99569821  0.57522315    -0.86540
C855        C  0.02410801  0.94842307  0.45800637     0.87370
O856        O  0.98229817  0.99454764  0.57722475    -0.64740
O857        O  0.95300745  0.03175975  0.43471429    -0.84030
C858        C  0.97080789  0.97316857  0.56070796     0.88200
C859        C  0.05508147  0.97219141  0.55946075     1.09770
H860        H  0.96237759  0.99623532  0.48778616     0.41570
O861        O  0.98297874  0.00427589  0.48261238    -1.06690
O862        O  0.02005118  0.05941429  0.47632805    -0.63340
Ni863      Ni  0.98636800  0.04325638  0.50222942     1.26350
O864        O  0.97983224  0.96760611  0.53327165    -0.63570
O865        O  0.95596562  0.06251410  0.47661325    -0.75860
C866        C  0.97505926  0.07855092  0.55159369     0.87580
O867        O  0.98808524  0.08023523  0.52551274    -0.63040
Ni868      Ni  0.98580452  0.00132776  0.43914038     1.27450
Ni869      Ni  0.01346220  0.98401875  0.50758661     1.26060
H870        H  0.03729880  0.03105762  0.52226418     0.42130
C871        C  0.55665153  0.02893989  0.69310400     0.06190
C872        C  0.53020541  0.04252626  0.67942383    -0.09960
C873        C  0.51497149  0.06746971  0.69371083     0.03690
C874        C  0.52625025  0.07886580  0.72186487    -0.08480
C875        C  0.55276482  0.06522248  0.73569229     0.06190
C876        C  0.56792081  0.04023493  0.72122729    -0.07900
H877        H  0.52169455  0.03390999  0.65752651     0.11780
H878        H  0.51468928  0.09844579  0.73276658     0.09310
H879        H  0.58863582  0.02986789  0.73161679     0.09160
C880        C  0.74219963  0.07182227  0.54475801     0.06190
C881        C  0.72850524  0.04536710  0.55770734    -0.09960
C882        C  0.70255379  0.03117544  0.54352368     0.03690
C883        C  0.69030808  0.04346348  0.51628283    -0.08480
C884        C  0.70390369  0.06991046  0.50321500     0.06190
C885        C  0.72986343  0.08406868  0.51748375    -0.07900
H886        H  0.73778703  0.03605660  0.57895638     0.11780
H887        H  0.66999735  0.03272133  0.50550383     0.09310
H888        H  0.74017671  0.10472753  0.50761036     0.09160
C889        C  0.55458365  0.20146562  0.50568114     0.06190
C890        C  0.57218769  0.22576793  0.51835058    -0.09960
C891        C  0.56225115  0.24010961  0.54555153     0.03690
C892        C  0.53455431  0.23024097  0.56018635    -0.08480
C893        C  0.51676909  0.20594258  0.54773656     0.06190
C894        C  0.52683208  0.19150419  0.52040482    -0.07900
H895        H  0.59376338  0.23331643  0.50720923     0.11780
H896        H  0.52704387  0.24123521  0.58141145     0.09310
H897        H  0.51337004  0.17245077  0.51085861     0.09160
O898        O  0.61922039  0.17413667  0.41953321    -0.71360
O899        O  0.66739679  0.13405176  0.35596584    -0.71390
O900        O  0.61808018  0.17401297  0.35701426    -0.71450
O901        O  0.66856389  0.13435567  0.41851049    -0.71500
O902        O  0.63495860  0.09458625  0.41916230    -0.71430
O903        O  0.58445714  0.13425390  0.35769998    -0.71410
O904        O  0.63370859  0.09434924  0.35670491    -0.71380
O905        O  0.58565083  0.13434218  0.42017657    -0.71450
Ni906      Ni  0.64452216  0.15557738  0.38768078     1.25410
Ni907      Ni  0.60850670  0.11296397  0.38840467     1.25360
C908        C  0.59485183  0.16055693  0.43056143     0.90820
C909        C  0.65831874  0.10763439  0.34593822     0.90750
C910        C  0.59307143  0.16058992  0.34729336     0.90780
C911        C  0.65970731  0.10822321  0.42924354     0.90950
O912        O  0.43081216  0.09973912  0.62466529    -0.71360
O913        O  0.36535319  0.14564589  0.58395742    -0.71390
O914        O  0.42977856  0.14517114  0.58213039    -0.71450
O915        O  0.36653332  0.09977540  0.62515917    -0.71500
O916        O  0.36682276  0.13498782  0.66284518    -0.71430
O917        O  0.43116489  0.18046945  0.61966649    -0.71410
O918        O  0.36667181  0.18086205  0.62161259    -0.71380
O919        O  0.43115794  0.13503044  0.66225816    -0.71450
Ni920      Ni  0.39815924  0.12133834  0.60262142     1.25410
Ni921      Ni  0.39904342  0.15911664  0.64295535     1.25360
C922        C  0.44170439  0.11010582  0.65015403     0.90820
C923        C  0.35482625  0.17036438  0.59674796     0.90750
C924        C  0.44120599  0.16986473  0.59385973     0.90780
C925        C  0.35565344  0.11037288  0.65043269     0.90950
C926        C  0.70031970  0.24230097  0.70290465     0.06190
C927        C  0.72767069  0.22939222  0.69009614    -0.09960
C928        C  0.74116918  0.20297324  0.70318895     0.03690
C929        C  0.72735484  0.18953499  0.72913065    -0.08480
C930        C  0.70000360  0.20261656  0.74185440     0.06190
C931        C  0.68653103  0.22899356  0.72880100    -0.07900
H932        H  0.73802639  0.23947886  0.66965549     0.11780
H933        H  0.73746101  0.16875505  0.73899417     0.09310
H934        H  0.66502027  0.23874879  0.73838253     0.09160
O935        O  0.63039909  0.32167722  0.66282746    -0.71360
O936        O  0.59299688  0.38272511  0.61097203    -0.71390
O937        O  0.59350684  0.32005658  0.61231183    -0.71450
O938        O  0.62864614  0.38438040  0.66153866    -0.71500
O939        O  0.67181699  0.38468435  0.63192930    -0.71430
O940        O  0.63649922  0.31964265  0.58249151    -0.71410
O941        O  0.63615042  0.38245523  0.58129656    -0.71380
O942        O  0.67346156  0.32190296  0.63306731    -0.71450
Ni943      Ni  0.60982939  0.35211381  0.63796630     1.25410
Ni944      Ni  0.65607449  0.35206750  0.60613699     1.25360
C945        C  0.65814897  0.31187329  0.65625398     0.90820
C946        C  0.60895604  0.39311472  0.58826241     0.90750
C947        C  0.60904521  0.30933051  0.58946272     0.90780
C948        C  0.65544246  0.39566765  0.65423652     0.90950
O949        O  0.63022916  0.95102403  0.65877771    -0.71360
O950        O  0.67597176  0.88732875  0.61673018    -0.71390
O951        O  0.67357295  0.95027772  0.61309528    -0.71450
O952        O  0.63322614  0.88829951  0.66184687    -0.71500
O953        O  0.59451493  0.88485378  0.62719635    -0.71430
O954        O  0.63489465  0.94702085  0.57843634    -0.71410
O955        O  0.63727108  0.88402786  0.58204403    -0.71380
O956        O  0.59148163  0.94766167  0.62417807    -0.71450
Ni957      Ni  0.65465300  0.91948979  0.63880589     1.25410
Ni958      Ni  0.61315235  0.91588273  0.60166366     1.25360
C959        C  0.60338431  0.95966154  0.64842796     0.90820
C960        C  0.66328725  0.87433924  0.59341294     0.90750
C961        C  0.66074822  0.95898178  0.58797886     0.90780
C962        C  0.60789462  0.87574993  0.65190560     0.90950
O963        O  0.82713621  0.13955362  0.66257178    -0.71360
O964        O  0.89119000  0.10662095  0.60982601    -0.71390
O965        O  0.89111836  0.14398076  0.65888050    -0.71450
O966        O  0.82714645  0.10162707  0.61299208    -0.71500
O967        O  0.82251335  0.14250104  0.58209328    -0.71430
O968        O  0.88652304  0.18493719  0.62804375    -0.71410
O969        O  0.88664432  0.14756335  0.57893165    -0.71380
O970        O  0.82252312  0.18044941  0.63165396    -0.71450
Ni971      Ni  0.85922120  0.12144464  0.63716626     1.25410
Ni972      Ni  0.85425057  0.16531742  0.60407256     1.25360
C973        C  0.81434503  0.16541969  0.65561990     0.90820
C974        C  0.90021560  0.12232268  0.58657338     0.90750
C975        C  0.89997413  0.17090085  0.65030252     0.90780
C976        C  0.81425339  0.11520160  0.59012915     0.90950
O977        O  0.66274798  0.13710399  0.82360977    -0.71360
O978        O  0.61470626  0.09804443  0.88655174    -0.71390
O979        O  0.61676495  0.09393879  0.82395233    -0.71450
O980        O  0.66008529  0.14109759  0.88569660    -0.71500
O981        O  0.62351152  0.17825335  0.88229648    -0.71430
O982        O  0.58017155  0.13106591  0.82084701    -0.71410
O983        O  0.57809108  0.13521137  0.88345603    -0.71380
O984        O  0.62615520  0.17425923  0.82015294    -0.71450
Ni985      Ni  0.63984411  0.11614731  0.85501601     1.25410
Ni986      Ni  0.60061286  0.15597483  0.85148615     1.25360
C987        C  0.65230686  0.16204157  0.81165853     0.90820
C988        C  0.58936323  0.11097291  0.89616360     0.90750
C989        C  0.59170217  0.10517512  0.81184677     0.90780
C990        C  0.64846763  0.16704804  0.89447967     0.90950
C991        C  0.05764899  0.75405264  0.56384855     0.06190
C992        C  0.02914317  0.74320050  0.57633123    -0.09960
C993        C  0.01386316  0.71763423  0.56302107     0.03690
C994        C  0.02715291  0.70304188  0.53726565    -0.08480
C995        C  0.05560270  0.71384784  0.52484674     0.06190
C996        C  0.07077577  0.73933562  0.53811109    -0.07900
H997        H  0.01913954  0.75431751  0.59648614     0.11780
H998        H  0.01563609  0.68303801  0.52719478     0.09310
H999        H  0.09297447  0.74745840  0.52865713     0.09160
O1000       O  0.16204702  0.62268677  0.44482434    -0.71360
O1001       O  0.12262866  0.66983461  0.38149897    -0.71390
O1002       O  0.12312881  0.67237554  0.44395706    -0.71450
O1003       O  0.16048696  0.62031360  0.38236892    -0.71500
O1004       O  0.11861157  0.58895933  0.38436090    -0.71430
O1005       O  0.08129853  0.64097752  0.44559081    -0.71410
O1006       O  0.08073240  0.63848851  0.38311786    -0.71380
O1007       O  0.12025482  0.59127762  0.44688767    -0.71450
Ni1008     Ni  0.14359261  0.64741763  0.41320799     1.25410
Ni1009     Ni  0.09870623  0.61380834  0.41516787     1.25360
C1010       C  0.14766114  0.59944762  0.45632018     0.90820
C1011       C  0.09583596  0.66113881  0.37120527     0.90750
C1012       C  0.09606762  0.66502525  0.45487877     0.90780
C1013       C  0.14501198  0.59685071  0.37254893     0.90950
C1014       C  0.21138199  0.75045680  0.69559723     0.06190
C1015       C  0.19281804  0.73875686  0.71943747    -0.09960
C1016       C  0.20063274  0.71050075  0.73287696     0.03690
C1017       C  0.22705202  0.69390667  0.72276519    -0.08480
C1018       C  0.24566522  0.70552700  0.69896214     0.06190
C1019       C  0.23785878  0.73386559  0.68526617    -0.07900
H1020       H  0.17202594  0.75131395  0.72711820     0.11780
H1021       H  0.23280635  0.67178000  0.73305527     0.09310
H1022       H  0.25192044  0.74264605  0.66638634     0.09160
C1023       C  0.23833670  0.55965330  0.56199661     0.06190
C1024       C  0.22175093  0.57156391  0.53684675    -0.09960
C1025       C  0.19371364  0.55747848  0.52702233     0.03690
C1026       C  0.18223384  0.53135512  0.54236167    -0.08480
C1027       C  0.19868092  0.51925333  0.56754832     0.06190
C1028       C  0.22675151  0.53345658  0.57737335    -0.07900
H1029       H  0.23048377  0.59194068  0.52512072     0.11780
H1030       H  0.16041803  0.52061174  0.53486455     0.09310
H1031       H  0.23935917  0.52433979  0.59701653     0.09160
O1032       O  0.32811460  0.63106802  0.66823455    -0.71360
O1033       O  0.39235281  0.59198425  0.61894146    -0.71390
O1034       O  0.39231764  0.63138027  0.66680592    -0.71450
O1035       O  0.32785800  0.59025041  0.62103641    -0.71500
O1036       O  0.32568226  0.62958803  0.58800816    -0.71430
O1037       O  0.39124627  0.67076574  0.63375031    -0.71410
O1038       O  0.39010903  0.63138783  0.58594677    -0.71380
O1039       O  0.32717505  0.67036851  0.63506121    -0.71450
Ni1040     Ni  0.36016176  0.60968875  0.64489648     1.25410
Ni1041     Ni  0.35844198  0.65190576  0.60948570     1.25360
C1042       C  0.31723370  0.65727697  0.65941980     0.90820
C1043       C  0.40236884  0.60603206  0.59492489     0.90750
C1044       C  0.40277804  0.65739981  0.65749391     0.90780
C1045       C  0.31573513  0.60327288  0.59754199     0.90950
C1046       C  0.04216986  0.52257023  0.69194467     0.06190
C1047       C  0.05836489  0.53432089  0.71749661    -0.09960
C1048       C  0.04835513  0.56186666  0.73146835     0.03690
C1049       C  0.02208136  0.57768861  0.72002312    -0.08480
C1050       C  0.00579203  0.56612204  0.69454616     0.06190
C1051       C  0.01581788  0.53850785  0.68043035    -0.07900
H1052       H  0.07898302  0.52230392  0.72620183     0.11780
H1053       H  0.01458612  0.59922620  0.73067149     0.09310
H1054       H  0.00347884  0.52972320  0.66043199     0.09160
O1055       O  0.13289226  0.43417261  0.59417844    -0.71360
O1056       O  0.08078414  0.37226137  0.63137352    -0.71390
O1057       O  0.07956630  0.43519740  0.62842592    -0.71450
O1058       O  0.13438528  0.37117964  0.59764251    -0.71500
O1059       O  0.16345696  0.37410097  0.64027585    -0.71430
O1060       O  0.10870524  0.43778314  0.67103740    -0.71410
O1061       O  0.10984276  0.37491876  0.67403530    -0.71380
O1062       O  0.16200950  0.43717192  0.63676980    -0.71450
Ni1063     Ni  0.10590545  0.40307871  0.61134925     1.25410
Ni1064     Ni  0.13705199  0.40608642  0.65704382     1.25360
C1065       C  0.15557307  0.44618770  0.60948692     0.90820
C1066       C  0.08688722  0.36335235  0.65869543     0.90750
C1067       C  0.08551118  0.44718030  0.65473271     0.90780
C1068       C  0.15753820  0.36185390  0.61415503     0.90950
O1069       O  0.92577633  0.64321991  0.67108372    -0.71360
O1070       O  0.86277253  0.69301549  0.63131563    -0.71390
O1071       O  0.86163476  0.64773115  0.67333970    -0.71450
O1072       O  0.92707877  0.68946184  0.62932022    -0.71500
O1073       O  0.92397952  0.65449825  0.59156346    -0.71430
O1074       O  0.85814550  0.61274492  0.63559744    -0.71410
O1075       O  0.85983017  0.65786452  0.59368121    -0.71380
O1076       O  0.92211398  0.60838059  0.63324814    -0.71450
Ni1077     Ni  0.89449698  0.66963200  0.65263453     1.25410
Ni1078     Ni  0.89094082  0.63212587  0.61217842     1.25360
C1079       C  0.93429228  0.61768759  0.65843917     0.90820
C1080       C  0.85058637  0.68302448  0.60627509     0.90750
C1081       C  0.84868221  0.62394999  0.66128087     0.90780
C1082       C  0.93650356  0.67869329  0.60348665     0.90950
O1083       O  0.13316546  0.83385309  0.58841631    -0.71360
O1084       O  0.18385240  0.89754307  0.62528267    -0.71390
O1085       O  0.18270579  0.83464178  0.62757535    -0.71450
O1086       O  0.13486108  0.89658133  0.58602598    -0.71500
O1087       O  0.10133198  0.89893291  0.62567595    -0.71430
O1088       O  0.14920236  0.83695605  0.66721617    -0.71410
O1089       O  0.15025383  0.89975725  0.66483537    -0.71380
O1090       O  0.09974015  0.83630668  0.62808447    -0.71450
Ni1091     Ni  0.15987000  0.86554118  0.60539677     1.25410
Ni1092     Ni  0.12394565  0.86805313  0.64788587     1.25360
C1093       C  0.10819716  0.82465697  0.60230695     0.90820
C1094       C  0.17497689  0.90933170  0.65090838     0.90750
C1095       C  0.17357476  0.82545430  0.65399840     0.90780
C1096       C  0.11061063  0.90812308  0.59930054     0.90950
O1097       O  0.12239697  0.59598498  0.81039345    -0.71360
O1098       O  0.16460227  0.64456123  0.87131205    -0.71390
O1099       O  0.12443905  0.59738665  0.87274744    -0.71450
O1100       O  0.16361685  0.64360888  0.80918761    -0.71500
O1101       O  0.12343795  0.67724618  0.80946179    -0.71430
O1102       O  0.08414971  0.63092963  0.87339399    -0.71410
O1103       O  0.12433272  0.67811259  0.87165889    -0.71380
O1104       O  0.08219586  0.62955255  0.81099658    -0.71450
Ni1105     Ni  0.14520129  0.61915265  0.84073536     1.25410
Ni1106     Ni  0.10201728  0.65513644  0.84123728     1.25360
C1107       C  0.09538302  0.60496434  0.80070599     0.90820
C1108       C  0.15069276  0.66851681  0.88219873     0.90750
C1109       C  0.09880667  0.60760456  0.88444033     0.90780
C1110       C  0.15016104  0.66802354  0.79916737     0.90950
C1111       C  0.76134325  0.31918370  0.29584290     0.06190
C1112       C  0.77859902  0.32734733  0.26972762    -0.09960
C1113       C  0.80436177  0.30921091  0.26055249     0.03690
C1114       C  0.81286994  0.28304759  0.27718532    -0.08480
C1115       C  0.79573053  0.27492900  0.30328883     0.06190
C1116       C  0.76989412  0.29289275  0.31272044    -0.07900
H1117       H  0.77241562  0.34799792  0.25697640     0.11780
H1118       H  0.83328632  0.26947279  0.27026839     0.09310
H1119       H  0.75692698  0.28680211  0.33332037     0.09160
O1120       O  0.67641854  0.42686216  0.38190742    -0.71360
O1121       O  0.61401562  0.39124074  0.32930435    -0.71390
O1122       O  0.61201518  0.42414482  0.38179859    -0.71450
O1123       O  0.67823928  0.39257198  0.32983258    -0.71500
O1124       O  0.67888716  0.34937492  0.35785952    -0.71430
O1125       O  0.61381735  0.38081190  0.40957161    -0.71410
O1126       O  0.61489950  0.34794027  0.35715301    -0.71380
O1127       O  0.67812928  0.38363080  0.40978813    -0.71450
Ni1128     Ni  0.64518270  0.41032290  0.35475242     1.25410
Ni1129     Ni  0.64653719  0.36390923  0.38459270     1.25360
C1130       C  0.68784932  0.41111327  0.40405731     0.90820
C1131       C  0.60378271  0.36408182  0.33498817     0.90750
C1132       C  0.60155852  0.40706582  0.40359190     0.90780
C1133       C  0.68930522  0.36559352  0.33563881     0.90950
C1134       C  0.79945418  0.45787412  0.48983103     0.06190
C1135       C  0.77339076  0.44286037  0.47669630    -0.09960
C1136       C  0.76077578  0.45330805  0.44886448     0.03690
C1137       C  0.77429903  0.47892040  0.43411913    -0.08480
C1138       C  0.80036775  0.49407462  0.44712611     0.06190
C1139       C  0.81292309  0.48347619  0.47501147    -0.07900
H1140       H  0.76314462  0.42289825  0.48795702     0.11780
H1141       H  0.76470314  0.48689642  0.41247216     0.09310
H1142       H  0.83326713  0.49491489  0.48498448     0.09160
C1143       C  0.95143678  0.49186699  0.30911252     0.06190
C1144       C  0.97714270  0.47786516  0.32362825    -0.09960
C1145       C  0.99015023  0.45062923  0.31164416     0.03690
C1146       C  0.97743746  0.43730843  0.28497333    -0.08480
C1147       C  0.95164112  0.45130663  0.27030556     0.06190
C1148       C  0.93866586  0.47864104  0.28243191    -0.07900
H1149       H  0.98676031  0.48794074  0.34445605     0.11780
H1150       H  0.98735108  0.41600652  0.27587294     0.09310
H1151       H  0.91848413  0.48933540  0.27140720     0.09160
C1152       C  0.94231096  0.31641289  0.49442327     0.06190
C1153       C  0.97089053  0.32645253  0.48137609    -0.09960
C1154       C  0.98326787  0.31130561  0.45535368     0.03690
C1155       C  0.96693359  0.28619961  0.44253760    -0.08480
C1156       C  0.93841267  0.27627131  0.45557686     0.06190
C1157       C  0.92620418  0.29133693  0.48145810    -0.07900
H1158       H  0.98320561  0.34611593  0.49117372     0.11780
H1159       H  0.97617530  0.27467106  0.42225736     0.09310
H1160       H  0.90398095  0.28375836  0.49131091     0.09160
O1161       O  0.07189202  0.41816471  0.38291392    -0.71360
O1162       O  0.13639821  0.37272567  0.42522396    -0.71390
O1163       O  0.13613108  0.41856597  0.38388432    -0.71450
O1164       O  0.07193980  0.37266097  0.42532510    -0.71500
O1165       O  0.07194438  0.33737766  0.38774461    -0.71430
O1166       O  0.13693003  0.38335412  0.34620320    -0.71410
O1167       O  0.13645722  0.33751504  0.38753005    -0.71380
O1168       O  0.07270978  0.38285794  0.34532455    -0.71450
Ni1169     Ni  0.10402225  0.39677014  0.40570717     1.25410
Ni1170     Ni  0.10448591  0.35899131  0.36535328     1.25360
C1171       C  0.06174000  0.40772320  0.35718732     0.90820
C1172       C  0.14745095  0.34809166  0.41273811     0.90750
C1173       C  0.14756031  0.40811121  0.35875464     0.90780
C1174       C  0.06099716  0.34791994  0.41321016     0.90950
O1175       O  0.87035289  0.34739297  0.57396637    -0.71360
O1176       O  0.82171651  0.38847163  0.63663104    -0.71390
O1177       O  0.82566822  0.39216891  0.57411585    -0.71450
O1178       O  0.86582543  0.34352805  0.63618758    -0.71500
O1179       O  0.90347543  0.37941712  0.64069311    -0.71430
O1180       O  0.86330241  0.42806171  0.57841345    -0.71410
O1181       O  0.85943321  0.42429521  0.64088369    -0.71380
O1182       O  0.90794343  0.38330193  0.57855654    -0.71450
Ni1183     Ni  0.84451148  0.36662009  0.60503689     1.25410
Ni1184     Ni  0.88486476  0.40506479  0.60979224     1.25360
C1185       C  0.89701118  0.35882336  0.56590132     0.90820
C1186       C  0.83304749  0.41277822  0.64941802     0.90750
C1187       C  0.83818248  0.41770653  0.56567253     0.90780
C1188       C  0.89089306  0.35382173  0.64891315     0.90950
O1189       O  0.88310408  0.33662237  0.18317630    -0.71360
O1190       O  0.92641985  0.38502955  0.12329874    -0.71390
O1191       O  0.92497084  0.38378475  0.18574921    -0.71450
O1192       O  0.88550157  0.33795704  0.12085416    -0.71500
O1193       O  0.84571941  0.37199650  0.12044445    -0.71430
O1194       O  0.88511236  0.41770764  0.18561725    -0.71410
O1195       O  0.88646178  0.41896053  0.12337816    -0.71380
O1196       O  0.84336577  0.37075973  0.18248895    -0.71450
Ni1197     Ni  0.90649863  0.35962202  0.15337839     1.25410
Ni1198     Ni  0.86375360  0.39606596  0.15306827     1.25360
C1199       C  0.85604567  0.34599411  0.19248305     0.90820
C1200       C  0.91277562  0.40923447  0.11287886     0.90750
C1201       C  0.91144991  0.40805705  0.19644495     0.90780
C1202       C  0.85963793  0.34803140  0.10949424     0.90950
O1203       O  0.83489818  0.57601352  0.37737766    -0.71360
O1204       O  0.88334583  0.63898604  0.33652737    -0.71390
O1205       O  0.88320167  0.57600733  0.33665931    -0.71450
O1206       O  0.83484827  0.63911410  0.37630790    -0.71500
O1207       O  0.86919329  0.63974273  0.41520461    -0.71430
O1208       O  0.91761510  0.57609428  0.37547954    -0.71410
O1209       O  0.91764164  0.63909090  0.37543230    -0.71380
O1210       O  0.86928452  0.57666355  0.41617960    -0.71450
Ni1211     Ni  0.85782463  0.60745854  0.35534079     1.25410
Ni1212     Ni  0.89464201  0.60786000  0.39700090     1.25360
C1213       C  0.84444414  0.56584804  0.40339091     0.90820
C1214       C  0.90811312  0.64967600  0.34968914     0.90750
C1215       C  0.90807544  0.56556563  0.34958073     0.90780
C1216       C  0.84469822  0.65042420  0.40164532     0.90950
O1217       O  0.82314354  0.19362672  0.37519827    -0.71360
O1218       O  0.86815259  0.13225702  0.41981896    -0.71390
O1219       O  0.86562780  0.19500535  0.42149799    -0.71450
O1220       O  0.82692310  0.13097899  0.37330392    -0.71500
O1221       O  0.86653221  0.13391985  0.33943863    -0.71430
O1222       O  0.90505516  0.19724510  0.38741163    -0.71410
O1223       O  0.90773914  0.13463900  0.38585823    -0.71380
O1224       O  0.86265024  0.19644615  0.34121299    -0.71450
Ni1225     Ni  0.84450356  0.16295438  0.39869183     1.25410
Ni1226     Ni  0.88691672  0.16575095  0.36227036     1.25360
C1227       C  0.83550030  0.20506936  0.35103354     0.90820
C1228       C  0.89476683  0.12284368  0.40963660     0.90750
C1229       C  0.89180584  0.20651439  0.41215589     0.90780
C1230       C  0.84099680  0.12155281  0.34892854     0.90950
O1231       O  0.02569549  0.33365867  0.78519239    -0.77830
O1232       O  0.98408753  0.23365065  0.69486680    -0.62520
O1233       O  0.98676975  0.28550297  0.76503437    -1.09120
C1234       C  0.05851732  0.21097171  0.80244867     1.09060
O1235       O  0.97822513  0.19180324  0.72376520    -0.75720
O1236       O  0.98058938  0.19652372  0.78493039    -0.63310
Ni1237     Ni  0.98756970  0.32939606  0.76180206     1.34870
C1238       C  0.97597841  0.21528933  0.80686692     0.87800
O1239       O  0.95437699  0.28564524  0.70879739    -0.76260
O1240       O  0.94993668  0.32894967  0.73735969    -0.86540
C1241       C  0.97224270  0.20723131  0.69963741     0.87370
O1242       O  0.01281232  0.33239909  0.72579560    -0.64740
O1243       O  0.04439324  0.19195349  0.78468601    -0.84030
C1244       C  0.02542172  0.31276029  0.70792998     0.88200
C1245       C  0.94201091  0.31183139  0.71479866     1.09770
H1246       H  0.03721238  0.23958945  0.73799228     0.41570
O1247       O  0.01762240  0.23739776  0.74917257    -1.06690
O1248       O  0.99014547  0.24125155  0.80962712    -0.63340
Ni1249     Ni  0.02055756  0.26345881  0.78426108     1.26350
O1250       O  0.01878035  0.28399614  0.70798043    -0.63570
O1251       O  0.05375509  0.24005669  0.80266510    -0.75860
C1252       C  0.03569607  0.31950616  0.80869337     0.87580
O1253       O  0.02527032  0.29311354  0.81634938    -0.63040
Ni1254     Ni  0.01177298  0.19408319  0.75381524     1.27450
Ni1255     Ni  0.98585714  0.26107471  0.72883702     1.26060
H1256       H  0.96754115  0.28092026  0.77607018     0.42130
C1257       C  0.01548621  0.20808097  0.06252056     0.06190
C1258       C  0.03120215  0.19525590  0.03714296    -0.09960
C1259       C  0.05760331  0.21019462  0.02466745     0.03690
C1260       C  0.06823803  0.23801375  0.03748104    -0.08480
C1261       C  0.05258787  0.25092103  0.06282940     0.06190
C1262       C  0.02619967  0.23596539  0.07536495    -0.07900
H1263       H  0.02318387  0.17351514  0.02739897     0.11780
H1264       H  0.08892034  0.24934425  0.02804682     0.09310
H1265       H  0.01436712  0.24572105  0.09527837     0.09160
O1266       O  0.12055982  0.33452249  0.08916442    -0.71360
O1267       O  0.17147686  0.39603729  0.12879540    -0.71390
O1268       O  0.16833989  0.33263525  0.13035782    -0.71450
O1269       O  0.12321420  0.39750970  0.08748387    -0.71500
O1270       O  0.08835820  0.40012051  0.12584800    -0.71430
O1271       O  0.13344844  0.33541158  0.16866906    -0.71410
O1272       O  0.13654536  0.39874468  0.16716077    -0.71380
O1273       O  0.08561914  0.33714129  0.12755561    -0.71450
Ni1274     Ni  0.14717914  0.36517102  0.10761044     1.25410
Ni1275     Ni  0.10980665  0.36804446  0.14869259     1.25360
C1276       C  0.09507077  0.32546359  0.10210978     0.90820
C1277       C  0.16227820  0.40751787  0.15442638     0.90750
C1278       C  0.15777194  0.32277486  0.15619543     0.90780
C1279       C  0.09815673  0.40921171  0.09949448     0.90950
C1280       C  0.05262374  0.05190001  0.24002305     0.06190
C1281       C  0.06464964  0.02385477  0.22841743    -0.09960
C1282       C  0.05072968  0.01013811  0.20242337     0.03690
C1283       C  0.02499685  0.02455684  0.18820225    -0.08480
C1284       C  0.01318673  0.05247322  0.19987705     0.06190
C1285       C  0.02692320  0.06605359  0.22571434    -0.07900
H1286       H  0.08483899  0.01301566  0.23927123     0.11780
H1287       H  0.01443956  0.01428498  0.16791637     0.09310
H1288       H  0.01783134  0.08786621  0.23447688     0.09160
C1289       C  0.23341930  0.20167440  0.19923157     0.06190
C1290       C  0.21789546  0.18997461  0.22519565    -0.09960
C1291       C  0.19150432  0.20521257  0.23764801     0.03690
C1292       C  0.18050508  0.23267619  0.22384876    -0.08480
C1293       C  0.19577101  0.24490553  0.19772510     0.06190
C1294       C  0.22228598  0.22917547  0.18553337    -0.07900
H1295       H  0.22627140  0.16875269  0.23565109     0.11780
H1296       H  0.16000327  0.24439310  0.23329940     0.09310
H1297       H  0.23408980  0.23818990  0.16536459     0.09160
O1298       O  0.15976013  0.13851586  0.32227670    -0.71360
O1299       O  0.11426707  0.09333637  0.38477152    -0.71390
O1300       O  0.11766762  0.09132476  0.32240672    -0.71450
O1301       O  0.15697284  0.13956199  0.38498668    -0.71500
O1302       O  0.11769758  0.17406098  0.38293305    -0.71430
O1303       O  0.07824831  0.12559107  0.31954706    -0.71410
O1304       O  0.07504027  0.12776934  0.38197417    -0.71380
O1305       O  0.12040727  0.17282997  0.32012015    -0.71450
Ni1306     Ni  0.13860241  0.11451516  0.35366871     1.25410
Ni1307     Ni  0.09647071  0.15134322  0.35102073     1.25360
C1308       C  0.14722634  0.16289081  0.31064863     0.90820
C1309       C  0.08723081  0.10343012  0.39371966     0.90750
C1310       C  0.09168374  0.10047622  0.31068491     0.90780
C1311       C  0.14341690  0.16407036  0.39483315     0.90950
C1312       C  0.19101280  0.05049221  0.02490797     0.06190
C1313       C  0.17782915  0.02360298  0.03763986    -0.09960
C1314       C  0.19186751  0.00969898  0.06337305     0.03690
C1315       C  0.21907020  0.02280164  0.07630296    -0.08480
C1316       C  0.23225276  0.04964112  0.06366534     0.06190
C1317       C  0.21822771  0.06341357  0.03799329    -0.07900
H1318       H  0.15661975  0.01371558  0.02775200     0.11780
H1319       H  0.22976547  0.01232254  0.09635322     0.09310
H1320       H  0.22828483  0.08434110  0.02841233     0.09160
O1321       O  0.31546824  0.12494727  0.17579356    -0.71360
O1322       O  0.37941423  0.07430198  0.13638076    -0.71390
O1323       O  0.37987743  0.11917631  0.17962236    -0.71450
O1324       O  0.31514171  0.07916756  0.13294162    -0.71500
O1325       O  0.32006261  0.11455696  0.09602061    -0.71430
O1326       O  0.38498892  0.15456585  0.14270168    -0.71410
O1327       O  0.38413622  0.10987706  0.09965417    -0.71380
O1328       O  0.32086089  0.16015001  0.13882693    -0.71450
Ni1329     Ni  0.34723846  0.09814254  0.15755266     1.25410
Ni1330     Ni  0.35266301  0.13606167  0.11804392     1.25360
C1331       C  0.30740320  0.15072186  0.16339979     0.90820
C1332       C  0.39252728  0.08419375  0.11169135     0.90750
C1333       C  0.39366398  0.14280762  0.16827611     0.90780
C1334       C  0.30685775  0.09036568  0.10703196     0.90950
O1335       O  0.08732048  0.14273197  0.94336809    -0.71360
O1336       O  0.12505111  0.09358119  0.88014932    -0.71390
O1337       O  0.12451854  0.09179858  0.94272615    -0.71450
O1338       O  0.08863930  0.14438764  0.88104543    -0.71500
O1339       O  0.13147814  0.17446400  0.88253952    -0.71430
O1340       O  0.16733494  0.12187058  0.94410976    -0.71410
O1341       O  0.16794555  0.12361362  0.88148948    -0.71380
O1342       O  0.13008798  0.17290024  0.94502837    -0.71450
Ni1343     Ni  0.10486583  0.11704397  0.91185060     1.25410
Ni1344     Ni  0.15079589  0.14926301  0.91342558     1.25360
C1345       C  0.10243143  0.16572221  0.95455645     0.90820
C1346       C  0.15215080  0.10125898  0.86977978     0.90750
C1347       C  0.15173345  0.09845376  0.95371053     0.90780
C1348       C  0.10454931  0.16751752  0.87120832     0.90950
O1349       O  0.12390711  0.92520400  0.09188384    -0.71360
O1350       O  0.07668667  0.86164916  0.13227079    -0.71390
O1351       O  0.07795919  0.92469873  0.13499983    -0.71450
O1352       O  0.12339006  0.86225503  0.08961991    -0.71500
O1353       O  0.15951262  0.86064406  0.12688029    -0.71430
O1354       O  0.11436213  0.92256246  0.17197121    -0.71410
O1355       O  0.11285226  0.85958929  0.16945068    -0.71380
O1356       O  0.16030049  0.92358674  0.12887769    -0.71450
Ni1357     Ni  0.09916085  0.89345084  0.11087560     1.25410
Ni1358     Ni  0.13803898  0.89145785  0.15062069     1.25360
C1359       C  0.14950457  0.93514357  0.10391670     0.90820
C1360       C  0.08697735  0.85017521  0.15736357     0.90750
C1361       C  0.08921811  0.93423786  0.16065353     0.90780
C1362       C  0.14901924  0.85138256  0.10094786     0.90950
O1363       O  0.93104209  0.13778325  0.09257082    -0.71360
O1364       O  0.86627864  0.09483819  0.13688129    -0.71390
O1365       O  0.86697698  0.14043156  0.09580452    -0.71450
O1366       O  0.93037079  0.09129497  0.13396111    -0.71500
O1367       O  0.93384919  0.12593540  0.17202782    -0.71430
O1368       O  0.87005637  0.17513804  0.13387904    -0.71410
O1369       O  0.86971676  0.12946923  0.17495316    -0.71380
O1370       O  0.93417705  0.17242601  0.13062745    -0.71450
Ni1371     Ni  0.89866287  0.11482133  0.11342822     1.25410
Ni1372     Ni  0.90221741  0.15197850  0.15424518     1.25360
C1373       C  0.94318571  0.16216776  0.10444239     0.90820
C1374       C  0.85657973  0.10595562  0.16251455     0.90750
C1375       C  0.85735974  0.16504712  0.10920828     0.90780
C1376       C  0.94249719  0.10062245  0.15917469     0.90950
C1377       C  0.28168396  0.07574222  0.09037426    -0.10210
C1378       C  0.25956176  0.06364972  0.07769459    -0.11770
C1379       C  0.16583812  0.96039538  0.08933635    -0.10210
C1380       C  0.17796727  0.98252464  0.07715963    -0.11770
C1381       C  0.17636830  0.06551861  0.99895112    -0.10210
C1382       C  0.16487725  0.07970852  0.97783796    -0.11770
C1383       C  0.16308371  0.17911333  0.28586683    -0.10210
C1384       C  0.17565084  0.19190886  0.26422648    -0.11770
C1385       C  0.26035293  0.18475140  0.18666177    -0.10210
C1386       C  0.28219058  0.16932746  0.17670924    -0.11770
C1387       C  0.06685184  0.06720153  0.26592313    -0.10210
C1388       C  0.07775783  0.08218194  0.28675219    -0.11770
C1389       C  0.98752521  0.06794258  0.18499300    -0.10210
C1390       C  0.96661627  0.08242426  0.17316843    -0.11770
C1391       C  0.06338633  0.98201903  0.18931470    -0.10210
C1392       C  0.07420690  0.95944813  0.17666168    -0.11770
C1393       C  0.18378993  0.27316467  0.18319488    -0.10210
C1394       C  0.17277847  0.29625570  0.17107452    -0.11770
C1395       C  0.06480950  0.27866425  0.07675079    -0.10210
C1396       C  0.07738944  0.30085242  0.08824493    -0.11770
C1397       C  0.08791141  0.18340435  0.97863105    -0.10210
C1398       C  0.07438296  0.19636970  0.99936382    -0.11770
C1399       C  0.96779331  0.17827829  0.08835031    -0.10210
C1400       C  0.98916401  0.19199292  0.07610070    -0.11770
C1401       C  0.09207457  0.18545165  0.84634158    -0.10210
C1402       C  0.07910713  0.19828651  0.82529635    -0.11770
C1403       C  0.91969913  0.32395107  0.69334557    -0.10210
C1404       C  0.90518443  0.33655817  0.67320605    -0.11770
C1405       C  0.92856552  0.33208868  0.52052520    -0.10210
C1406       C  0.91480784  0.34423849  0.54169120    -0.11770
C1407       C  0.92111210  0.25117706  0.44189000    -0.10210
C1408       C  0.90689568  0.23056377  0.42940581    -0.11770
C1409       C  0.01195085  0.32222959  0.44094559    -0.10210
C1410       C  0.03504035  0.33257295  0.42821910    -0.11770
C1411       C  0.93743447  0.51905168  0.32255324    -0.10210
C1412       C  0.92499638  0.54090232  0.33486845    -0.11770
C1413       C  0.92592421  0.42441006  0.22158345    -0.10210
C1414       C  0.93784681  0.43707515  0.24345358    -0.11770
C1415       C  0.03717251  0.42382128  0.34124607    -0.10210
C1416       C  0.01598989  0.43607082  0.32739959    -0.11770
C1417       C  0.81297456  0.44611431  0.51790407    -0.10210
C1418       C  0.82430200  0.43435582  0.54049573    -0.11770
C1419       C  0.81466682  0.52003751  0.43151162    -0.10210
C1420       C  0.82743414  0.54131071  0.41846243    -0.11770
C1421       C  0.71271232  0.42464474  0.42214285    -0.10210
C1422       C  0.73436845  0.43738703  0.43504986    -0.11770
C1423       C  0.81873319  0.22852144  0.33489827    -0.10210
C1424       C  0.80641259  0.24926126  0.32111158    -0.11770
C1425       C  0.73571269  0.33836697  0.30617036    -0.10210
C1426       C  0.71432567  0.35275590  0.31755833    -0.11770
C1427       C  0.82344995  0.31863526  0.23530504    -0.10210
C1428       C  0.83938437  0.32909480  0.21515822    -0.11770
C1429       C  0.06688689  0.34063216  0.67285284    -0.10210
C1430       C  0.04858798  0.32474729  0.68704441    -0.11770
C1431       C  0.95847977  0.59913225  0.67227824    -0.10210
C1432       C  0.97958387  0.58347137  0.68244690    -0.11770
C1433       C  0.05376574  0.49487478  0.67709973    -0.10210
C1434       C  0.06657230  0.47242324  0.66608866    -0.11770
C1435       C  0.07960979  0.58751700  0.77732201    -0.10210
C1436       C  0.06566058  0.57477043  0.75680631    -0.11770
C1437       C  0.26665594  0.57499444  0.57253852    -0.10210
C1438       C  0.28963581  0.58820466  0.58251441    -0.11770
C1439       C  0.18609417  0.49269765  0.58350828    -0.10210
C1440       C  0.17343681  0.47097179  0.59587327    -0.11770
C1441       C  0.27177624  0.68753360  0.68766989    -0.10210
C1442       C  0.29292495  0.67261076  0.67651670    -0.11770
C1443       C  0.18100406  0.69782631  0.75637055    -0.10210
C1444       C  0.16575752  0.68528950  0.77590992    -0.11770
C1445       C  0.19029162  0.80084132  0.66866012    -0.10210
C1446       C  0.20170913  0.77849322  0.68075350    -0.11770
C1447       C  0.16265930  0.58264475  0.48067725    -0.10210
C1448       C  0.17642261  0.57039115  0.50161672    -0.11770
C1449       C  0.08204190  0.68373022  0.47851113    -0.10210
C1450       C  0.06989479  0.69800771  0.49922826    -0.11770
C1451       C  0.98534611  0.70533863  0.57645569    -0.10210
C1452       C  0.96238346  0.69364955  0.58811015    -0.11770
C1453       C  0.07418801  0.77965030  0.57777427    -0.10210
C1454       C  0.08938000  0.80048625  0.58888288    -0.11770
C1455       C  0.94843664  0.19564178  0.67930200    -0.10210
C1456       C  0.92625211  0.18514570  0.66547355    -0.11770
C1457       C  0.68530721  0.26807285  0.68839649    -0.10210
C1458       C  0.67245928  0.28864587  0.67478730    -0.11770
C1459       C  0.68462587  0.18825269  0.76735006    -0.10210
C1460       C  0.67022566  0.17642564  0.78795220    -0.11770
C1461       C  0.78983140  0.17775018  0.67471259    -0.10210
C1462       C  0.76815678  0.18889513  0.68883758    -0.11770
C1463       C  0.48895801  0.19519191  0.56379146    -0.10210
C1464       C  0.46657091  0.18509907  0.57783136    -0.11770
C1465       C  0.57807524  0.17461981  0.45580495    -0.10210
C1466       C  0.56597865  0.18640605  0.47813500    -0.11770
C1467       C  0.59498145  0.28506262  0.57164113    -0.10210
C1468       C  0.58074806  0.26460111  0.55889327    -0.11770
C1469       C  0.69027107  0.08314931  0.47588179    -0.10210
C1470       C  0.67726020  0.09435323  0.45389111    -0.11770
C1471       C  0.68783052  0.00467809  0.55758897    -0.10210
C1472       C  0.67543420  0.98326126  0.57060805    -0.11770
C1473       C  0.78961830  0.09963148  0.57340570    -0.10210
C1474       C  0.76830170  0.08686641  0.55999979    -0.11770
C1475       C  0.48836158  0.08176273  0.67880878    -0.10210
C1476       C  0.46669221  0.09391710  0.66551970    -0.11770
C1477       C  0.57685585  0.08917370  0.78666947    -0.10210
C1478       C  0.56531705  0.07766018  0.76398051    -0.11770
C1479       C  0.58639826  0.98351085  0.66434990    -0.10210
C1480       C  0.57270456  0.00396404  0.67772957    -0.11770
C1481       C  0.05234111  0.07269030  0.43405861    -0.10210
C1482       C  0.06962566  0.08691908  0.41696385    -0.11770
C1483       C  0.92719017  0.11184646  0.56981515    -0.10210
C1484       C  0.95051520  0.09968485  0.55966944    -0.11770
C1485       C  0.09342658  0.93203813  0.58440238    -0.10210
C1486       C  0.07735585  0.95152445  0.57267179    -0.11770
C1487       C  0.91005068  0.09795895  0.42481051    -0.10210
C1488       C  0.92420099  0.07724769  0.43673772    -0.11770
C1489       C  0.81552629  0.42808608  0.67334935    -0.10210
C1490       C  0.79965488  0.44392302  0.69026200    -0.11770
C1491       C  0.67778154  0.44399600  0.68384019    -0.10210
C1492       C  0.66687837  0.42184830  0.67092295    -0.11770
C1493       C  0.80090849  0.59590026  0.68790886    -0.10210
C1494       C  0.82256538  0.60978154  0.67658520    -0.11770
C1495       C  0.67912037  0.59688991  0.82791814    -0.10210
C1496       C  0.69793651  0.58198766  0.81312778    -0.11770
C1497       C  0.46126089  0.58078968  0.16287587    -0.10210
C1498       C  0.48353970  0.56831330  0.17498349    -0.11770
C1499       C  0.56936051  0.49141398  0.17406205    -0.10210
C1500       C  0.58170054  0.47050222  0.15983449    -0.11770
C1501       C  0.45847228  0.67524716  0.07851733    -0.10210
C1502       C  0.47993530  0.68634752  0.06403809    -0.11770
C1503       C  0.56335633  0.76426257  0.06163348    -0.10210
C1504       C  0.57546481  0.78523630  0.07555313    -0.11770
C1505       C  0.57197867  0.67416983  0.95774587    -0.10210
C1506       C  0.55879179  0.68533629  0.97980841    -0.11770
C1507       C  0.66385500  0.47130777  0.06113466    -0.10210
C1508       C  0.67707558  0.49323110  0.04984906    -0.11770
C1509       C  0.78435906  0.57886191  0.07852346    -0.10210
C1510       C  0.76261351  0.56877854  0.06349495    -0.11770
C1511       C  0.67294256  0.59430475  0.95715454    -0.10210
C1512       C  0.68545158  0.58102818  0.97838014    -0.11770
C1513       C  0.57296526  0.58108439  0.28140352    -0.10210
C1514       C  0.56207126  0.56864670  0.25875655    -0.11770
C1515       C  0.66670176  0.66644596  0.28289766    -0.10210
C1516       C  0.67873335  0.67906602  0.26099854    -0.11770
C1517       C  0.78059173  0.67163278  0.16466198    -0.10210
C1518       C  0.75833200  0.68306605  0.17784528    -0.11770
C1519       C  0.67471877  0.76166176  0.18235484    -0.10210
C1520       C  0.66229224  0.78342549  0.16985058    -0.11770
C1521       C  0.08494304  0.34606724  0.83415899    -0.10210
C1522       C  0.06190111  0.33297849  0.82450485    -0.11770
C1523       C  0.67019153  0.42533731  0.82702201    -0.10210
C1524       C  0.69281174  0.43750446  0.81549694    -0.11770
C1525       C  0.32408860  0.52930601  0.94394733    -0.10210
C1526       C  0.33471895  0.55176695  0.93128662    -0.11770
C1527       C  0.24421780  0.44901317  0.93163877    -0.10210
C1528       C  0.22267031  0.43874514  0.91662523    -0.11770
C1529       C  0.33538404  0.42728871  0.03682104    -0.10210
C1530       C  0.32283151  0.44082328  0.01577019    -0.11770
C1531       C  0.51263034  0.44979055  0.82429208    -0.10210
C1532       C  0.53384514  0.43546285  0.83581394    -0.11770
C1533       C  0.43102495  0.53089552  0.82203104    -0.10210
C1534       C  0.41841775  0.55229941  0.83518124    -0.11770
C1535       C  0.43751828  0.45124077  0.73974427    -0.10210
C1536       C  0.42793202  0.43688533  0.71786570    -0.11770
C1537       C  0.53527019  0.34125584  0.92175088    -0.10210
C1538       C  0.51390833  0.32755307  0.93399719    -0.11770
C1539       C  0.43268783  0.31886229  0.01415391    -0.10210
C1540       C  0.42090454  0.33136803  0.03619816    -0.11770
C1541       C  0.43597439  0.24313892  0.92889539    -0.10210
C1542       C  0.42381944  0.22159384  0.91570596    -0.11770
C1543       C  0.33143357  0.22341754  0.82858413    -0.10210
C1544       C  0.32110068  0.24591064  0.81560667    -0.11770
C1545       C  0.32570542  0.33156585  0.73981363    -0.10210
C1546       C  0.33845955  0.34484985  0.71868732    -0.11770
C1547       C  0.22226184  0.34236986  0.83392765    -0.10210
C1548       C  0.24382295  0.32987876  0.82068287    -0.11770
C1549       C  0.83123921  0.18106880  0.09636225    -0.10210
C1550       C  0.81016989  0.19263236  0.08212074    -0.11770
C1551       C  0.67699024  0.19556505  0.94027499    -0.10210
C1552       C  0.66336630  0.18350174  0.91913137    -0.11770
C1553       C  0.66351435  0.33846856  0.05869915    -0.10210
C1554       C  0.67999049  0.32176999  0.04317994    -0.11770
C1555       C  0.67239002  0.33848982  0.90963090    -0.10210
C1556       C  0.69444221  0.32731758  0.92280633    -0.11770
C1557       C  0.83326825  0.32204178  0.06108092    -0.10210
C1558       C  0.84627554  0.33277397  0.08327988    -0.11770
C1559       C  0.82933690  0.09265276  0.17681294    -0.10210
C1560       C  0.80569670  0.08093760  0.18683803    -0.11770
C1561       C  0.67682488  0.09175217  0.32309080    -0.10210
C1562       C  0.69378709  0.07542337  0.30769778    -0.11770
C1563       C  0.65547032  0.91915778  0.17251634    -0.10210
C1564       C  0.66899604  0.94101883  0.18341455    -0.11770
C1565       C  0.82834834  0.09605110  0.33214362    -0.10210
C1566       C  0.81672091  0.07461493  0.31872014    -0.11770
C1567       C  0.07050032  0.91325686  0.43939980    -0.10210
C1568       C  0.04790272  0.92672094  0.44943185    -0.11770
C1569       C  0.43759934  0.81867460  0.51390884    -0.10210
C1570       C  0.42711395  0.83238881  0.53587084    -0.11770
C1571       C  0.32105031  0.93523940  0.51559108    -0.10210
C1572       C  0.33633342  0.92376446  0.53602663    -0.11770
C1573       C  0.31242101  0.01729226  0.43809615    -0.10210
C1574       C  0.32454969  0.03930172  0.42579006    -0.11770
C1575       C  0.23178565  0.93475503  0.44252297    -0.10210
C1576       C  0.20899519  0.92181079  0.43174788    -0.11770
C1577       C  0.67391531  0.90735535  0.32149387    -0.10210
C1578       C  0.69526633  0.92161337  0.31006336    -0.11770
C1579       C  0.53781131  0.82529477  0.41696437    -0.10210
C1580       C  0.51548827  0.81385812  0.42997974    -0.11770
C1581       C  0.51623495  0.93355635  0.32214386    -0.10210
C1582       C  0.53791559  0.91807367  0.33136221    -0.11770
C1583       C  0.43032481  0.94516781  0.24811669    -0.10210
C1584       C  0.41661184  0.93325060  0.22701171    -0.11770
C1585       C  0.43884768  0.01881693  0.33362312    -0.10210
C1586       C  0.42519272  0.04009331  0.34582383    -0.11770
C1587       C  0.41086172  0.71979302  0.42067793    -0.10210
C1588       C  0.42610206  0.74041151  0.43218754    -0.11770
C1589       C  0.22622432  0.82174308  0.32678522    -0.10210
C1590       C  0.20490457  0.83350790  0.34084562    -0.11770
C1591       C  0.31801006  0.71810334  0.33175790    -0.10210
C1592       C  0.30608273  0.74008635  0.31953359    -0.11770
C1593       C  0.31001270  0.82856357  0.24941432    -0.10210
C1594       C  0.32375770  0.84241272  0.22961796    -0.11770
C1595       C  0.43365670  0.05090034  0.07959654    -0.10210
C1596       C  0.41660103  0.06599522  0.09633249    -0.11770
C1597       C  0.56271785  0.08518006  0.94405115    -0.10210
C1598       C  0.57397173  0.09835314  0.92242980    -0.11770
C1599       C  0.56127310  0.94355661  0.07445413    -0.10210
C1600       C  0.57207932  0.92029063  0.08548799    -0.11770
C1601       C  0.42658490  0.93289743  0.07016918    -0.10210
C1602       C  0.41527022  0.92149653  0.09272265    -0.11770
C1603       C  0.42964030  0.06461752  0.92905904    -0.10210
C1604       C  0.41813181  0.08667549  0.91643222    -0.11770
C1605       C  0.06819472  0.82724824  0.17287191    -0.10210
C1606       C  0.04984802  0.81189292  0.18765667    -0.11770
C1607       C  0.94380562  0.69047851  0.32125287    -0.10210
C1608       C  0.92617794  0.67355681  0.33502493    -0.11770
C1609       C  0.93970516  0.68611728  0.17964821    -0.10210
C1610       C  0.91788145  0.67292970  0.16749916    -0.11770
C1611       C  0.04759013  0.81728684  0.33721996    -0.10210
C1612       C  0.06931247  0.82844326  0.35134667    -0.11770
C1613       C  0.08293934  0.67640915  0.34499567    -0.10210
C1614       C  0.07059758  0.68794683  0.32297642    -0.11770
C1615       C  0.81702029  0.69899414  0.42627400    -0.10210
C1616       C  0.82864390  0.67650338  0.41450742    -0.11770
C1617       C  0.69013734  0.80280374  0.42471699    -0.10210
C1618       C  0.67325686  0.81768000  0.40820847    -0.11770
C1619       C  0.68678644  0.82324509  0.56981614    -0.10210
C1620       C  0.67743466  0.84711416  0.58079206    -0.11770
C1621       C  0.66548189  0.66883979  0.41608577    -0.10210
C1622       C  0.67943195  0.68298287  0.43598753    -0.11770
C1623       C  0.81017385  0.71535503  0.57417227    -0.10210
C1624       C  0.82662039  0.70055679  0.59114325    -0.11770
C1625       C  0.17717250  0.07375958  0.82158655    -0.10210
C1626       C  0.16468144  0.08523793  0.84368469    -0.11770
C1627       C  0.19357794  0.93315704  0.66503732    -0.10210
C1628       C  0.21018237  0.94985160  0.68023670    -0.11770
C1629       C  0.32966757  0.09465138  0.66449904    -0.10210
C1630       C  0.30760163  0.08206117  0.67662498    -0.11770
C1631       C  0.33659992  0.95049460  0.68649485    -0.10210
C1632       C  0.35054580  0.93728083  0.66626909    -0.11770
C1633       C  0.30492072  0.07355181  0.81965661    -0.10210
C1634       C  0.32309416  0.09008521  0.83325729    -0.11770
C1635       C  0.07984529  0.43208189  0.08249268    -0.10210
C1636       C  0.06250503  0.44808317  0.06678185    -0.11770
C1637       C  0.08702186  0.59349826  0.91144942    -0.10210
C1638       C  0.07576656  0.58244791  0.93407436    -0.11770
C1639       C  0.94784624  0.56924732  0.07900956    -0.10210
C1640       C  0.92377164  0.57953873  0.08974243    -0.11770
C1641       C  0.06120565  0.45415956  0.91834269    -0.10210
C1642       C  0.08439591  0.44282647  0.90693227    -0.11770
C1643       C  0.93833132  0.43826584  0.06676737    -0.10210
C1644       C  0.92650441  0.42525631  0.08798163    -0.11770
C1645       C  0.16754728  0.82949208  0.08373590    -0.10210
C1646       C  0.18672739  0.81525569  0.06878922    -0.11770
C1647       C  0.17677493  0.69520657  0.92987237    -0.10210
C1648       C  0.16427714  0.68404637  0.90780033    -0.11770
C1649       C  0.32364220  0.68402034  0.92492728    -0.10210
C1650       C  0.30503717  0.70003913  0.93877350    -0.11770
C1651       C  0.32149232  0.68057870  0.09192776    -0.10210
C1652       C  0.29893631  0.69295170  0.08039951    -0.11770
C1653       C  0.32829209  0.83714507  0.09868818    -0.10210
C1654       C  0.31511633  0.82534358  0.07735805    -0.11770
C1655       C  0.42848521  0.67151527  0.67375675    -0.10210
C1656       C  0.45019007  0.68455910  0.68613923    -0.11770
C1657       C  0.45676995  0.83188224  0.68490985    -0.10210
C1658       C  0.44002257  0.84616202  0.66756638    -0.11770
C1659       C  0.42608984  0.70409569  0.81716134    -0.10210
C1660       C  0.41082636  0.68458839  0.83002869    -0.11770
C1661       C  0.55529831  0.69607361  0.81209133    -0.10210
C1662       C  0.57283223  0.68029770  0.82744528    -0.11770
C1663       C  0.58192383  0.82893064  0.68093185    -0.10210
C1664       C  0.59463975  0.85027184  0.66831846    -0.11770
C1665       C  0.15730911  0.18008468  0.42025990    -0.10210
C1666       C  0.17022322  0.19287847  0.44137426    -0.11770
C1667       C  0.31220825  0.20465927  0.56942279    -0.10210
C1668       C  0.32968665  0.18734026  0.58272602    -0.11770
C1669       C  0.34284973  0.34045198  0.58653957    -0.10210
C1670       C  0.32836999  0.32733948  0.56663296    -0.11770
C1671       C  0.18895621  0.31419091  0.44189969    -0.10210
C1672       C  0.17212224  0.33128130  0.42761625    -0.11770
C1673       C  0.30594716  0.19722036  0.42578260    -0.10210
C1674       C  0.31730647  0.17452016  0.41392578    -0.11770
C1675       C  0.17681742  0.33667705  0.60316739    -0.10210
C1676       C  0.19009246  0.31537601  0.59054336    -0.11770
C1677       C  0.19961270  0.44517587  0.18533957    -0.10210
C1678       C  0.18184039  0.42983710  0.16989195    -0.11770
C1679       C  0.30131838  0.57496223  0.18191445    -0.10210
C1680       C  0.32365710  0.58677427  0.16948912    -0.11770
C1681       C  0.31032671  0.58598519  0.34141158    -0.10210
C1682       C  0.29392125  0.56875984  0.32655714    -0.11770
C1683       C  0.19509838  0.43680202  0.33203882    -0.10210
C1684       C  0.17338341  0.42421084  0.34477340    -0.11770
C1685       C  0.15699680  0.57984113  0.34684932    -0.10210
C1686       C  0.16910009  0.56776474  0.32487186    -0.11770
C1687       C  0.32811514  0.44426059  0.18951407    -0.10210
C1688       C  0.34255386  0.43184533  0.16909067    -0.11770
C1689       C  0.95435990  0.20484112  0.83009145    -0.10210
C1690       C  0.93772108  0.18886400  0.84607260    -0.11770
C1691       C  0.84543081  0.18330307  0.94174917    -0.10210
C1692       C  0.82829837  0.19764754  0.95879682    -0.11770
C1693       C  0.57926148  0.95025270  0.91369926    -0.10210
C1694       C  0.56126630  0.96472851  0.93009977    -0.11770
C1695       C  0.58198419  0.86031452  0.82390457    -0.10210
C1696       C  0.56071596  0.84634344  0.81174028    -0.11770
C1697       C  0.84256076  0.59870346  0.82949748    -0.10210
C1698       C  0.82772586  0.57873404  0.81676931    -0.11770
C1699       C  0.93350086  0.59522061  0.92152278    -0.10210
C1700       C  0.95067479  0.57773034  0.93578328    -0.11770
C1701       C  0.92909562  0.93916706  0.59090213    -0.10210
C1702       C  0.94692231  0.95398748  0.57484430    -0.11770
C1703       C  0.83444346  0.84823690  0.58588720    -0.10210
C1704       C  0.82125968  0.83461507  0.56514418    -0.11770
C1705       C  0.79680678  0.93923814  0.18436362    -0.10210
C1706       C  0.81453970  0.92505105  0.16776459    -0.11770
C1707       C  0.92163292  0.82197346  0.18788695    -0.10210
C1708       C  0.90772641  0.83542113  0.16785638    -0.11770
C1709       C  0.19952272  0.94442856  0.82466541    -0.10210
C1710       C  0.17642416  0.93284142  0.83595444    -0.11770
C1711       C  0.17519070  0.83749553  0.91083923    -0.10210
C1712       C  0.19730328  0.82512819  0.92310474    -0.11770
C1713       C  0.93687708  0.95060616  0.74253666    -0.10210
C1714       C  0.92495704  0.93711653  0.72104694    -0.11770
C1715       C  0.01701459  0.95211681  0.82462918    -0.10210
C1716       C  0.03861653  0.93922070  0.83736298    -0.11770
C1717       C  0.93764828  0.03490145  0.82050515    -0.10210
C1718       C  0.92699025  0.05699814  0.83417602    -0.11770
C1719       C  0.93789631  0.74926183  0.94334511    -0.10210
C1720       C  0.92614121  0.72734690  0.93069966    -0.11770
C1721       C  0.93561829  0.83588296  0.01664385    -0.10210
C1722       C  0.92113669  0.84787277  0.03745562    -0.11770
C1723       C  0.01655475  0.83144343  0.93435867    -0.10210
C1724       C  0.03798674  0.84269644  0.91993759    -0.11770
C1725       C  0.82453277  0.03333944  0.93793089    -0.10210
C1726       C  0.83894056  0.05464007  0.92669379    -0.11770
C1727       C  0.73723431  0.95750923  0.93436546    -0.10210
C1728       C  0.71511664  0.94568202  0.92133755    -0.11770
C1729       C  0.81694003  0.95148107  0.01623793    -0.10210
C1730       C  0.82799820  0.93738396  0.03757057    -0.11770
C1731       C  0.82438258  0.75562150  0.82765884    -0.10210
C1732       C  0.83710456  0.73324521  0.83952710    -0.11770
C1733       C  0.74243563  0.83947480  0.82447647    -0.10210
C1734       C  0.71980510  0.85378002  0.83443683    -0.11770
C1735       C  0.82416930  0.83402140  0.74373414    -0.10210
C1736       C  0.83548225  0.84631503  0.72118612    -0.11770
C1737       C  0.42012417  0.15605263  0.18389549    -0.10210
C1738       C  0.44264798  0.16973371  0.19382989    -0.11770
C1739       C  0.57859395  0.35172639  0.31671756    -0.10210
C1740       C  0.55694191  0.33879182  0.30417710    -0.11770
C1741       C  0.55536522  0.19103128  0.30993619    -0.10210
C1742       C  0.57356444  0.17602195  0.32513283    -0.11770
C1743       C  0.56931398  0.31699042  0.17090737    -0.10210
C1744       C  0.58232572  0.33730207  0.15697193    -0.11770
C1745       C  0.42847604  0.33593813  0.16784832    -0.10210
C1746       C  0.44495362  0.32034546  0.18439143    -0.11770
C1747       C  0.41485837  0.17268083  0.33634296    -0.10210
C1748       C  0.42869783  0.19297714  0.32310507    -0.11770
C1749       C  0.55163049  0.42691233  0.43389238    -0.10210
C1750       C  0.57471918  0.41696358  0.42106768    -0.11770
C1751       C  0.45158493  0.58310020  0.56557696    -0.10210
C1752       C  0.42880241  0.59391884  0.57824132    -0.11770
C1753       C  0.40158418  0.58822672  0.42969983    -0.10210
C1754       C  0.41700408  0.56822018  0.44130152    -0.11770
C1755       C  0.43660690  0.42819964  0.58563356    -0.10210
C1756       C  0.45432453  0.44110525  0.56799575    -0.11770
C1757       C  0.54796888  0.56972709  0.43121326    -0.10210
C1758       C  0.56593224  0.58332123  0.41428076    -0.11770
C1759       C  0.58324795  0.43923388  0.55879543    -0.10210
C1760       C  0.59642132  0.41803664  0.57092988    -0.11770
loop_ 
_geom_bond_atom_site_label_1 
_geom_bond_atom_site_label_2 
_geom_bond_distance 
_geom_bond_site_symmetry_2 
_ccdc_geom_bond_type 
O1           Ni7   1.920       .  S
O1           C22   1.268       .  A
O2          Ni25   1.898       .  S
O2           C11   1.268       .  A
O3           Ni7   1.901       .  S
O3          Ni25   1.896       .  S
O3          Ni19   1.906       .  S
O3           H26   0.966       .  S
C4           O21   1.270       .  A
C4           O13   1.274       .  A
C4         C1754   1.419       .  S
O5          Ni24   1.920       .  S
O5           C11   1.269       .  A
O6          Ni24   1.902       .  S
O6            C8   1.266       .  A
Ni7          O10   1.917       .  S
Ni7          O12   1.898       .  S
C8           O18   1.278       .  A
C8         C1757   1.444       .  S
O9          Ni25   1.899       .  S
O9           C15   1.269       .  A
O10          C15   1.274       .  A
C11        C1749   1.428       .  S
O12          C14   1.265       .  A
O13         Ni24   1.917       .  S
C14          O20   1.279       .  A
C14        C1756   1.441       .  S
C15        C1759   1.419       .  S
H16          O17   0.966       .  S
O17         Ni25   1.902       .  S
O17         Ni19   1.892       .  S
O17         Ni24   1.898       .  S
O18         Ni19   1.951       .  S
Ni19         O23   1.898       .  S
Ni19         O21   1.901       .  S
O20         Ni25   1.951       .  S
C22          O23   1.267       .  A
C22        C1751   1.429       .  S
O27         Ni33   1.927       .  S
O27          C48   1.270       .  A
O28         Ni51   1.906       .  S
O28          C37   1.268       .  A
O29         Ni33   1.903       .  S
O29         Ni51   1.899       .  S
O29         Ni45   1.909       .  S
O29          H52   0.966       .  S
C30          O47   1.271       .  A
C30          O39   1.274       .  A
C30        C1748   1.431       .  S
O31         Ni50   1.922       .  S
O31          C37   1.269       .  A
O32         Ni50   1.899       .  S
O32          C34   1.266       .  A
Ni33         O36   1.925       .  S
Ni33         O38   1.896       .  S
C34          O44   1.274       .  A
C34        C1741   1.435       .  S
O35         Ni51   1.907       .  S
O35          C41   1.272       .  A
O36          C41   1.275       .  A
C37        C1740   1.432       .  S
O38          C40   1.265       .  A
O39         Ni50   1.924       .  S
C40          O46   1.278       .  A
C40        C1746   1.440       .  S
C41        C1743   1.429       .  S
H42          O43   0.966       .  S
O43         Ni51   1.914       .  S
O43         Ni45   1.900       .  S
O43         Ni50   1.907       .  S
O44         Ni45   1.938       .  S
Ni45         O49   1.897       .  S
Ni45         O47   1.908       .  S
O46         Ni51   1.949       .  S
C48          O49   1.265       .  A
C48        C1738   1.429       .  S
C53        C1731   1.468       .  S
C53          C54   1.411       .  A
C53          C58   1.414       .  A
C54          C55   1.410       .  A
C54          H59   1.084       .  S
C55        C1735   1.457       .  S
C55          C56   1.403       .  A
C56          C57   1.404       .  A
C56          H60   1.085       .  S
C57        C1733   1.459       .  S
C57          C58   1.413       .  A
C58          H61   1.084       .  S
C62        C1727   1.445       .  S
C62          C63   1.402       .  A
C62          C67   1.404       .  A
C63          C64   1.402       .  A
C63          H68   1.085       .  S
C64        C1729   1.443   1_556  S
C64          C65   1.403       .  A
C65          C66   1.403   1_565  A
C65          H69   1.085   1_565  S
C66        C1725   1.446       .  S
C66          C67   1.405   1_545  A
C67          H70   1.084   1_565  S
C71        C1723   1.441   1_655  S
C71          C72   1.406       .  A
C71          C76   1.398       .  A
C72          C73   1.406       .  A
C72          H77   1.084       .  S
C73        C1721   1.443   1_556  S
C73          C74   1.401       .  A
C74          C75   1.399       .  A
C74          H78   1.085       .  S
C75        C1719   1.435       .  S
C75          C76   1.398       .  A
C76          H79   1.085       .  S
C80        C1713   1.450       .  S
C80          C81   1.408       .  A
C80          C85   1.404       .  A
C81          C82   1.407   1_565  A
C81          H86   1.084   1_565  S
C82        C1717   1.446       .  S
C82          C83   1.401   1_545  A
C83          C84   1.399       .  A
C83          H87   1.085   1_565  S
C84        C1715   1.442   1_655  S
C84          C85   1.403       .  A
C85          H88   1.085       .  S
O89         Ni97   1.929       .  S
O89          C99   1.283       .  A
O90         Ni97   1.925       .  S
O90         C100   1.283       .  A
O91         Ni97   1.909       .  S
O91         C101   1.276       .  A
O92         Ni97   1.911       .  S
O92         C102   1.277       .  A
O93         Ni98   1.927       .  S
O93         C102   1.282       .  A
O94         Ni98   1.923       .  S
O94         C101   1.283       .  A
O95         Ni98   1.905       .  S
O95         C100   1.276       .  A
O96         Ni98   1.908       .  S
O96          C99   1.276       .  A
Ni97        Ni98   2.394       .  S
C99        C1724   1.436       .  S
C100       C1710   1.432       .  S
C101       C1711   1.433       .  S
C102       C1716   1.437       .  S
O103       Ni111   1.920       .  S
O103        C113   1.280       .  A
O104       Ni111   1.916       .  S
O104        C114   1.279       .  A
O105       Ni111   1.920       .  S
O105        C115   1.280       .  A
O106       Ni111   1.921       .  S
O106        C116   1.281       .  A
O107       Ni112   1.921       .  S
O107        C116   1.280       .  A
O108       Ni112   1.919       .  S
O108        C115   1.280       .  A
O109       Ni112   1.915       .  S
O109        C114   1.280       .  A
O110       Ni112   1.920       .  S
O110        C113   1.280       .  A
Ni111      Ni112   2.394       .  S
C113       C1730   1.438       .  S
C114       C1708   1.432       .  S
C115       C1706   1.437       .  S
C116       C1722   1.439       .  S
O117       Ni125   1.924       .  S
O117        C127   1.280       .  A
O118       Ni125   1.921       .  S
O118        C128   1.280       .  A
O119       Ni125   1.932       .  S
O119        C129   1.283       .  A
O120       Ni125   1.933       .  S
O120        C130   1.284       .  A
O121       Ni126   1.923       .  S
O121        C130   1.280       .  A
O122       Ni126   1.920       .  S
O122        C129   1.279       .  A
O123       Ni126   1.934       .  S
O123        C128   1.284       .  A
O124       Ni126   1.937       .  S
O124        C127   1.284       .  A
Ni125      Ni126   2.389       .  S
C127       C1736   1.452       .  S
C128       C1701   1.448       .  S
C129       C1714   1.445       .  S
C130       C1703   1.449       .  S
O131       Ni139   1.914       .  S
O131        C141   1.279       .  A
O132       Ni139   1.915       .  S
O132        C142   1.278       .  A
O133       Ni139   1.938       .  S
O133        C143   1.284       .  A
O134       Ni139   1.935       .  S
O134        C144   1.283       .  A
O135       Ni140   1.939       .  S
O135        C144   1.284       .  A
O136       Ni140   1.942       .  S
O136        C143   1.285       .  A
O137       Ni140   1.911       .  S
O137        C142   1.279       .  A
O138       Ni140   1.913       .  S
O138        C141   1.278       .  A
Ni139      Ni140   2.390       .  S
C141       C1720   1.429       .  S
C142       C1697   1.429       .  S
C143       C1732   1.464       .  S
C144       C1699   1.460       .  S
O145       Ni153   1.941       .  S
O145        C155   1.285       .  A
O146       Ni153   1.938       .  S
O146        C156   1.285       .  A
O147       Ni153   1.918       .  S
O147        C157   1.279       .  A
O148       Ni153   1.917       .  S
O148        C158   1.278       .  A
O149       Ni154   1.922       .  S
O149        C158   1.281       .  A
O150       Ni154   1.925       .  S
O150        C157   1.282       .  A
O151       Ni154   1.921       .  S
O151        C156   1.280       .  A
O152       Ni154   1.925       .  S
O152        C155   1.280       .  A
Ni153      Ni154   2.390       .  S
C155       C1734   1.455       .  S
C156       C1693   1.450       .  S
C157       C1728   1.440       .  S
C158       C1695   1.437       .  S
O159       Ni167   1.922       .  S
O159        C169   1.280       .  A
O160       Ni167   1.921       .  S
O160        C170   1.280       .  A
O161       Ni167   1.920       .  S
O161        C171   1.280       .  A
O162       Ni167   1.915       .  S
O162        C172   1.279       .  A
O163       Ni168   1.922       .  S
O163        C172   1.280       .  A
O164       Ni168   1.925       .  S
O164        C171   1.282       .  A
O165       Ni168   1.923       .  S
O165        C170   1.281       .  A
O166       Ni168   1.923       .  S
O166        C169   1.281       .  A
Ni167      Ni168   2.392       .  S
C169       C1726   1.441       .  S
C170       C1690   1.441       .  S
C171       C1718   1.441       .  S
C172       C1691   1.436       .  S
O173       Ni179   1.927       .  S
O173        C194   1.269       .  A
O174       Ni197   1.898       .  S
O174        C183   1.266       .  A
O175       Ni179   1.903       .  S
O175       Ni197   1.898       .  S
O175       Ni191   1.907       .  S
O175        H198   0.966       .  S
C176        O193   1.270       .  A
C176        O185   1.275       .  A
C176       C1686   1.427       .  S
O177       Ni196   1.927       .  S
O177        C183   1.269       .  A
O178       Ni196   1.892       .  S
O178        C180   1.265       .  A
Ni179       O182   1.922       .  S
Ni179       O184   1.898       .  S
C180        O190   1.277       .  A
C180       C1682   1.433       .  S
O181       Ni197   1.909       .  S
O181        C187   1.272       .  A
O182        C187   1.275       .  A
C183       C1679   1.431       .  S
O184        C186   1.266       .  A
O185       Ni196   1.923       .  S
C186        O192   1.275       .  A
C186       C1677   1.437       .  S
C187       C1687   1.429       .  S
H188        O189   0.966       .  S
O189       Ni197   1.911       .  S
O189       Ni191   1.900       .  S
O189       Ni196   1.904       .  S
O190       Ni191   1.943       .  S
Ni191       O195   1.900       .  S
Ni191       O193   1.905       .  S
O192       Ni197   1.942       .  S
C194        O195   1.267       .  A
C194       C1683   1.432       .  S
O199       Ni205   1.921       .  S
O199        C220   1.268       .  A
O200       Ni223   1.903       .  S
O200        C209   1.265       .  A
O201       Ni205   1.909       .  S
O201       Ni223   1.907       .  S
O201       Ni217   1.918       .  S
O201        H224   0.966       .  S
C202        O219   1.272       .  A
C202        O211   1.273       .  A
C202       C1670   1.430       .  S
O203       Ni222   1.924       .  S
O203        C209   1.267       .  A
O204       Ni222   1.888       .  S
O204        C206   1.264       .  A
Ni205       O208   1.926       .  S
Ni205       O210   1.885       .  S
C206        O216   1.275       .  A
C206       C1667   1.427       .  S
O207       Ni223   1.902       .  S
O207        C213   1.268       .  A
O208        C213   1.273       .  A
C209       C1673   1.434       .  S
O210        C212   1.264       .  A
O211       Ni222   1.919       .  S
C212        O218   1.275       .  A
C212       C1671   1.425       .  S
C213       C1666   1.431       .  S
H214        O215   0.966       .  S
O215       Ni223   1.911       .  S
O215       Ni217   1.904       .  S
O215       Ni222   1.907       .  S
O216       Ni217   1.938       .  S
Ni217       O221   1.911       .  S
Ni217       O219   1.912       .  S
O218       Ni223   1.939       .  S
C220        O221   1.269       .  A
C220       C1676   1.436       .  S
O225       Ni231   1.926       .  S
O225        C246   1.268       .  A
O226       Ni249   1.904       .  S
O226        C235   1.268       .  A
O227       Ni231   1.907       .  S
O227       Ni249   1.904       .  S
O227       Ni243   1.913       .  S
O227        H250   0.966       .  S
C228        O245   1.271       .  A
C228        O237   1.276       .  A
C228       C1659   1.429       .  S
O229       Ni248   1.930       .  S
O229        C235   1.271       .  A
O230       Ni248   1.900       .  S
O230        C232   1.266       .  A
Ni231       O234   1.923       .  S
Ni231       O236   1.892       .  S
C232        O242   1.277       .  A
C232       C1661   1.442       .  S
O233       Ni249   1.904       .  S
O233        C239   1.269       .  A
O234        C239   1.274       .  A
C235       C1696   1.436       .  S
O236        C238   1.265       .  A
O237       Ni248   1.926       .  S
C238        O244   1.278       .  A
C238       C1657   1.435       .  S
C239       C1663   1.428       .  S
H240        O241   0.966       .  S
O241       Ni249   1.906       .  S
O241       Ni243   1.900       .  S
O241       Ni248   1.904       .  S
O242       Ni243   1.948       .  S
Ni243       O247   1.904       .  S
Ni243       O245   1.907       .  S
O244       Ni249   1.947       .  S
C246        O247   1.267       .  A
C246       C1656   1.434       .  S
O251       Ni257   1.921   1_556  S
O251        C272   1.268       .  A
O252       Ni275   1.902       .  S
O252        C261   1.267       .  A
O253       Ni257   1.903   1_556  S
O253       Ni275   1.900   1_556  S
O253       Ni269   1.904       .  S
O253        H276   0.966       .  S
C254        O271   1.268       .  A
C254        O263   1.274       .  A
C254       C1647   1.421       .  S
O255       Ni274   1.922       .  S
O255        C261   1.268       .  A
O256       Ni274   1.895   1_556  S
O256        C258   1.265       .  A
Ni257       O260   1.920       .  S
Ni257       O262   1.895       .  S
C258        O268   1.277       .  A
C258       C1650   1.435       .  S
O259       Ni275   1.898       .  S
O259        C265   1.269       .  A
O260        C265   1.274       .  A
C261       C1652   1.432       .  S
O262        C264   1.265       .  A
O263       Ni274   1.920   1_556  S
C264        O270   1.275       .  A
C264       C1646   1.435       .  S
C265       C1654   1.420       .  S
H266        O267   0.966       .  S
O267       Ni275   1.906       .  S
O267       Ni269   1.899   1_554  S
O267       Ni274   1.902       .  S
O268       Ni269   1.943       .  S
Ni269       O273   1.901       .  S
Ni269       O271   1.899       .  S
O270       Ni275   1.942       .  S
C272        O273   1.267       .  A
C272       C1712   1.430       .  S
O277       Ni283   1.917       .  S
O277        C298   1.268       .  A
O278       Ni301   1.900       .  S
O278        C287   1.269       .  A
O279       Ni283   1.898   1_655  S
O279       Ni301   1.892   1_556  S
O279       Ni295   1.902   1_655  S
O279        H302   0.966       .  S
C280        O297   1.268       .  A
C280        O289   1.276       .  A
C280       C1638   1.415       .  S
O281       Ni300   1.921   1_655  S
O281        C287   1.269       .  A
O282       Ni300   1.904   1_656  S
O282        C284   1.266       .  A
Ni283       O286   1.914   1_456  S
Ni283       O288   1.906   1_556  S
C284        O294   1.284       .  A
C284       C1700   1.457       .  S
O285       Ni301   1.895       .  S
O285        C291   1.270       .  A
O286        C291   1.274       .  A
C287       C1639   1.430       .  S
O288        C290   1.267       .  A
O289       Ni300   1.920   1_556  S
C290        O296   1.282       .  A
C290       C1636   1.457       .  S
C291       C1643   1.412       .  S
H292        O293   0.966       .  S
O293       Ni301   1.905   1_455  S
O293       Ni295   1.892   1_554  S
O293       Ni300   1.898       .  S
O294       Ni295   1.968   1_655  S
Ni295       O299   1.900       .  S
Ni295       O297   1.892       .  S
O296       Ni301   1.965   1_455  S
C298        O299   1.269       .  A
C298       C1641   1.426       .  S
O303       Ni309   1.925       .  S
O303        C324   1.269       .  A
O304       Ni327   1.899       .  S
O304        C313   1.266       .  A
O305       Ni309   1.899       .  S
O305       Ni327   1.894   1_565  S
O305       Ni321   1.904   1_565  S
O305        H328   0.966       .  S
C306        O323   1.268       .  A
C306        O315   1.274       .  A
C306       C1625   1.428       .  S
O307       Ni326   1.924       .  S
O307        C313   1.268       .  A
O308       Ni326   1.890       .  S
O308        C310   1.265       .  A
Ni309       O312   1.919       .  S
Ni309       O314   1.895       .  S
C310        O320   1.277       .  A
C310       C1633   1.432       .  S
O311       Ni327   1.912   1_565  S
O311        C317   1.273       .  A
O312        C317   1.275       .  A
C313       C1630   1.430       .  S
O314        C316   1.265       .  A
O315       Ni326   1.924       .  S
C316        O322   1.275       .  A
C316       C1628   1.432       .  S
C317       C1631   1.427       .  S
H318        O319   0.966       .  S
O319       Ni327   1.916       .  S
O319       Ni321   1.903       .  S
O319       Ni326   1.907       .  S
O320       Ni321   1.944       .  S
Ni321       O325   1.899   1_545  S
Ni321       O323   1.903       .  S
O322       Ni327   1.938   1_565  S
C324        O325   1.267       .  A
C324       C1709   1.431       .  S
O329       Ni335   1.931       .  S
O329        C350   1.271       .  A
O330       Ni353   1.894       .  S
O330        C339   1.265       .  A
O331       Ni335   1.904       .  S
O331       Ni353   1.895       .  S
O331       Ni347   1.919       .  S
O331        H354   0.966       .  S
C332        O349   1.275       .  A
C332        O341   1.276       .  A
C332       C1704   1.447       .  S
O333       Ni352   1.927       .  S
O333        C339   1.270       .  A
O334       Ni352   1.892       .  S
O334        C336   1.265       .  A
Ni335       O338   1.930       .  S
Ni335       O340   1.892       .  S
C336        O346   1.273       .  A
C336       C1623   1.426       .  S
O337       Ni353   1.930       .  S
O337        C343   1.277       .  A
O338        C343   1.277       .  A
C339       C1615   1.426       .  S
O340        C342   1.265       .  A
O341       Ni352   1.932       .  S
C342        O348   1.273       .  A
C342       C1617   1.427       .  S
C343       C1622   1.447       .  S
H344        O345   0.966       .  S
O345       Ni353   1.925       .  S
O345       Ni347   1.897       .  S
O345       Ni352   1.905       .  S
O346       Ni347   1.931       .  S
Ni347       O351   1.889       .  S
Ni347       O349   1.925       .  S
O348       Ni353   1.932       .  S
C350        O351   1.263       .  A
C350       C1619   1.427       .  S
O355       Ni361   1.934   1_455  S
O355        C376   1.271       .  A
O356       Ni379   1.910       .  S
O356        C365   1.270       .  A
O357       Ni361   1.902       .  S
O357       Ni379   1.902       .  S
O357       Ni373   1.906   1_655  S
O357        H380   0.966       .  S
C358        O375   1.269       .  A
C358        O367   1.274       .  A
C358       C1614   1.428       .  S
O359       Ni378   1.924   1_655  S
O359        C365   1.268       .  A
O360       Ni378   1.894   1_655  S
O360        C362   1.265       .  A
Ni361       O364   1.928       .  S
Ni361       O366   1.894   1_655  S
C362        O372   1.277       .  A
C362       C1607   1.433       .  S
O363       Ni379   1.909       .  S
O363        C369   1.273       .  A
O364        C369   1.276       .  A
C365       C1609   1.437       .  S
O366        C368   1.265       .  A
O367       Ni378   1.923       .  S
C368        O374   1.278       .  A
C368       C1606   1.438       .  S
C369       C1707   1.432       .  S
H370        O371   0.966       .  S
O371       Ni379   1.915   1_455  S
O371       Ni373   1.901       .  S
O371       Ni378   1.905       .  S
O372       Ni373   1.942   1_655  S
Ni373       O377   1.901       .  S
Ni373       O375   1.904       .  S
O374       Ni379   1.950   1_455  S
C376        O377   1.267       .  A
C376       C1611   1.437       .  S
O381       Ni387   1.931   1_565  S
O381        C402   1.270       .  A
O382       Ni405   1.900       .  S
O382        C391   1.267       .  A
O383       Ni387   1.903       .  S
O383       Ni405   1.895   1_554  S
O383       Ni399   1.905   1_545  S
O383        H406   0.967       .  S
C384        O401   1.269       .  A
C384        O393   1.275       .  A
C384       C1601   1.423       .  S
O385       Ni404   1.928   1_545  S
O385        C391   1.270       .  A
O386       Ni404   1.895   1_544  S
O386        C388   1.265       .  A
Ni387       O390   1.926   1_554  S
Ni387       O392   1.899   1_544  S
C388        O398   1.280       .  A
C388       C1595   1.444       .  S
O389       Ni405   1.900       .  S
O389        C395   1.270       .  A
O390        C395   1.277       .  A
C391       C1603   1.432       .  S
O392        C394   1.266       .  A
O393       Ni404   1.925   1_554  S
C394        O400   1.281       .  A
C394       C1694   1.447       .  S
C395       C1597   1.424       .  S
H396        O397   0.967       .  S
O397       Ni405   1.909   1_565  S
O397       Ni399   1.900   1_556  S
O397       Ni404   1.906       .  S
O398       Ni399   1.958   1_545  S
Ni399       O403   1.899       .  S
Ni399       O401   1.896       .  S
O400       Ni405   1.957   1_565  S
C402        O403   1.267       .  A
C402       C1599   1.434       .  S
C407       C1592   1.433       .  S
C407        C408   1.399       .  A
C407        C412   1.398       .  A
C408        C409   1.400       .  A
C408        H413   1.085       .  S
C409       C1593   1.432       .  S
C409        C410   1.398       .  A
C410        C411   1.398       .  A
C410        H414   1.085       .  S
C411       C1589   1.432       .  S
C411        C412   1.398       .  A
C412        H415   1.085       .  S
O416       Ni424   1.924       .  S
O416        C426   1.281       .  A
O417       Ni424   1.921       .  S
O417        C427   1.281       .  A
O418       Ni424   1.907       .  S
O418        C428   1.277       .  A
O419       Ni424   1.911       .  S
O419        C429   1.279       .  A
O420       Ni425   1.913       .  S
O420        C429   1.279       .  A
O421       Ni425   1.905       .  S
O421        C428   1.278       .  A
O422       Ni425   1.917       .  S
O422        C427   1.279       .  A
O423       Ni425   1.919       .  S
O423        C426   1.280       .  A
Ni424      Ni425   2.395       .  S
C426       C1587   1.440       .  S
C427       C1681   1.436       .  S
C428       C1753   1.419       .  S
C429       C1591   1.428       .  S
C430       C1581   1.439       .  S
C430        C431   1.405       .  A
C430        C435   1.398       .  A
C431        C432   1.404       .  A
C431        H436   1.084       .  S
C432       C1585   1.441   1_565  S
C432        C433   1.401       .  A
C433        C434   1.398       .  A
C433        H437   1.085       .  S
C434       C1583   1.435       .  S
C434        C435   1.398       .  A
C435        H438   1.085       .  S
O439       Ni447   1.925       .  S
O439        C449   1.282       .  A
O440       Ni447   1.922       .  S
O440        C450   1.281       .  A
O441       Ni447   1.918       .  S
O441        C451   1.279       .  A
O442       Ni447   1.913       .  S
O442        C452   1.278       .  A
O443       Ni448   1.916       .  S
O443        C452   1.280       .  A
O444       Ni448   1.923       .  S
O444        C451   1.281       .  A
O445       Ni448   1.905       .  S
O445        C450   1.277       .  A
O446       Ni448   1.908       .  S
O446        C449   1.277       .  A
Ni447      Ni448   2.395       .  S
C449       C1582   1.434       .  S
C450       C1618   1.429       .  S
C451       C1579   1.439       .  S
C452       C1577   1.431       .  S
O453       Ni461   1.915       .  S
O453        C463   1.279       .  A
O454       Ni461   1.907       .  S
O454        C464   1.278       .  A
O455       Ni461   1.914       .  S
O455        C465   1.279       .  A
O456       Ni461   1.912       .  S
O456        C466   1.279       .  A
O457       Ni462   1.907       .  S
O457        C466   1.277       .  A
O458       Ni462   1.910       .  S
O458        C465   1.278       .  A
O459       Ni462   1.906       .  S
O459        C464   1.277       .  A
O460       Ni462   1.912       .  S
O460        C463   1.279       .  A
Ni461      Ni462   2.397       .  S
C463       C1584   1.429       .  S
C464       C1653   1.420       .  S
C465       C1594   1.427       .  S
C466       C1602   1.425       .  S
C467       C1575   1.448       .  S
C467        C468   1.405       .  A
C467        C472   1.405       .  A
C468        C469   1.404       .  A
C468        H473   1.084       .  S
C469       C1573   1.444   1_565  S
C469        C470   1.401       .  A
C470        C471   1.401       .  A
C470        H474   1.085       .  S
C471       C1571   1.445       .  S
C471        C472   1.404       .  A
C472        H475   1.084       .  S
C476       C1580   1.444       .  S
C476        C477   1.404       .  A
C476        C481   1.402       .  A
C477        C478   1.404       .  A
C477        H482   1.084       .  S
C478       C1588   1.445       .  S
C478        C479   1.402       .  A
C479        C480   1.402       .  A
C479        H483   1.085       .  S
C480       C1569   1.442       .  S
C480        C481   1.402       .  A
C481        H484   1.085       .  S
O485       Ni493   1.924       .  S
O485        C495   1.281       .  A
O486       Ni493   1.923       .  S
O486        C496   1.281       .  A
O487       Ni493   1.917       .  S
O487        C497   1.279       .  A
O488       Ni493   1.912       .  S
O488        C498   1.278       .  A
O489       Ni494   1.913       .  S
O489        C498   1.280       .  A
O490       Ni494   1.921       .  S
O490        C497   1.280       .  A
O491       Ni494   1.918       .  S
O491        C496   1.280       .  A
O492       Ni494   1.920       .  S
O492        C495   1.280       .  A
Ni493      Ni494   2.394       .  S
C495       C1572   1.440       .  S
C496       C1658   1.439       .  S
C497       C1570   1.437       .  S
C498       C1632   1.428       .  S
O499       Ni507   1.920       .  S
O499        C509   1.280       .  A
O500       Ni507   1.917       .  S
O500        C510   1.280       .  A
O501       Ni507   1.922       .  S
O501        C511   1.281       .  A
O502       Ni507   1.917       .  S
O502        C512   1.280       .  A
O503       Ni508   1.914       .  S
O503        C512   1.279       .  A
O504       Ni508   1.919       .  S
O504        C511   1.280       .  A
O505       Ni508   1.918       .  S
O505        C510   1.279       .  A
O506       Ni508   1.918       .  S
O506        C509   1.280       .  A
Ni507      Ni508   2.394       .  S
C509       C1586   1.436       .  S
C510       C1674   1.435       .  S
C511       C1574   1.439       .  S
C512       C1747   1.432       .  S
O513       Ni521   1.912       .  S
O513        C523   1.279       .  A
O514       Ni521   1.911       .  S
O514        C524   1.277       .  A
O515       Ni521   1.922       .  S
O515        C525   1.280       .  A
O516       Ni521   1.926       .  S
O516        C526   1.282       .  A
O517       Ni522   1.923       .  S
O517        C526   1.281       .  A
O518       Ni522   1.917       .  S
O518        C525   1.280       .  A
O519       Ni522   1.908       .  S
O519        C524   1.279       .  A
O520       Ni522   1.911       .  S
O520        C523   1.278       .  A
Ni521      Ni522   2.395       .  S
C523       C1590   1.427       .  S
C524       C1567   1.425       .  S
C525       C1612   1.438       .  S
C526       C1576   1.443       .  S
O527       Ni533   1.930       .  S
O527        C548   1.270       .  A
O528       Ni551   1.896       .  S
O528        C537   1.265       .  A
O529       Ni533   1.906       .  S
O529       Ni551   1.897   1_545  S
O529       Ni545   1.909       .  S
O529        H552   0.966       .  S
C530        O547   1.271       .  A
C530        O539   1.274       .  A
C530       C1566   1.424       .  S
O531       Ni550   1.927       .  S
O531        C537   1.270       .  A
O532       Ni550   1.896   1_545  S
O532        C534   1.265       .  A
Ni533       O536   1.927   1_545  S
Ni533       O538   1.898   1_545  S
C534        O544   1.275       .  A
C534       C1562   1.435       .  S
O535       Ni551   1.901       .  S
O535        C541   1.268       .  A
O536        C541   1.276       .  A
C537       C1578   1.429       .  S
O538        C540   1.265       .  A
O539       Ni550   1.923   1_545  S
C540        O546   1.275       .  A
C540       C1705   1.434       .  S
C541       C1564   1.427       .  S
H542        O543   0.966       .  S
O543       Ni551   1.904       .  S
O543       Ni545   1.899   1_565  S
O543       Ni550   1.903       .  S
O544       Ni545   1.943       .  S
Ni545       O549   1.896       .  S
Ni545       O547   1.902       .  S
O546       Ni551   1.939       .  S
C548        O549   1.265       .  A
C548       C1560   1.432       .  S
O553       Ni559   1.930   1_556  S
O553        C574   1.269       .  A
O554       Ni577   1.896       .  S
O554        C563   1.263       .  A
O555       Ni559   1.912       .  S
O555       Ni577   1.903       .  S
O555       Ni571   1.901   1_554  S
O555        H578   0.966       .  S
C556        O573   1.266       .  A
C556        O565   1.275       .  A
C556       C1556   1.421       .  S
O557       Ni576   1.934   1_554  S
O557        C563   1.270       .  A
O558       Ni576   1.891   1_554  S
O558        C560   1.264       .  A
Ni559       O562   1.922       .  S
Ni559       O564   1.900   1_554  S
C560        O570   1.277       .  A
C560       C1554   1.435       .  S
O561       Ni577   1.892       .  S
O561        C567   1.266       .  A
O562        C567   1.274       .  A
C563       C1557   1.433       .  S
O564        C566   1.266       .  A
O565       Ni576   1.928       .  S
C566        O572   1.273       .  A
C566       C1692   1.435       .  S
C567       C1550   1.419       .  S
H568        O569   0.966       .  S
O569       Ni577   1.903   1_556  S
O569       Ni571   1.906       .  S
O569       Ni576   1.910       .  S
O570       Ni571   1.947   1_554  S
Ni571       O575   1.901       .  S
Ni571       O573   1.889       .  S
O572       Ni577   1.936   1_556  S
C574        O575   1.265       .  A
C574       C1551   1.433       .  S
C579       C1545   1.451       .  S
C579        C580   1.404       .  A
C579        C584   1.408       .  A
C580        C581   1.404       .  A
C580        H585   1.084       .  S
C581       C1548   1.438       .  S
C581        C582   1.396       .  A
C582        C583   1.397       .  A
C582        H586   1.085       .  S
C583       C1544   1.443       .  S
C583        C584   1.408       .  A
C584        H587   1.084       .  S
C588       C1538   1.441       .  S
C588        C589   1.402       .  A
C588        C593   1.400       .  A
C589        C590   1.402       .  A
C589        H594   1.085       .  S
C590       C1541   1.444       .  S
C590        C591   1.404       .  A
C591        C592   1.403       .  A
C591        H595   1.084       .  S
C592       C1539   1.442   1_556  S
C592        C593   1.401       .  A
C593        H596   1.085       .  S
C597       C1533   1.445       .  S
C597        C598   1.408       .  A
C597        C602   1.402       .  A
C598        C599   1.407       .  A
C598        H603   1.084       .  S
C599       C1535   1.440       .  S
C599        C600   1.396       .  A
C600        C601   1.395       .  A
C600        H604   1.085       .  S
C601       C1531   1.433       .  S
C601        C602   1.400       .  A
C602        H605   1.085       .  S
C606       C1530   1.451   1_556  S
C606        C607   1.408       .  A
C606        C611   1.406       .  A
C607        C608   1.407       .  A
C607        H612   1.084       .  S
C608       C1527   1.442       .  S
C608        C609   1.396       .  A
C609        C610   1.397       .  A
C609        H613   1.085       .  S
C610       C1525   1.439       .  S
C610        C611   1.404       .  A
C611        H614   1.084       .  S
O615       Ni623   1.929       .  S
O615        C625   1.283       .  A
O616       Ni623   1.927       .  S
O616        C626   1.282       .  A
O617       Ni623   1.913       .  S
O617        C627   1.278       .  A
O618       Ni623   1.908       .  S
O618        C628   1.278       .  A
O619       Ni624   1.919       .  S
O619        C628   1.280       .  A
O620       Ni624   1.922       .  S
O620        C627   1.281       .  A
O621       Ni624   1.912       .  S
O621        C626   1.278       .  A
O622       Ni624   1.915       .  S
O622        C625   1.278       .  A
Ni623      Ni624   2.394       .  S
C625       C1534   1.440       .  S
C626       C1649   1.437       .  S
C627       C1526   1.434       .  S
C628       C1660   1.430       .  S
O629       Ni637   1.924       .  S
O629        C639   1.281       .  A
O630       Ni637   1.918       .  S
O630        C640   1.281       .  A
O631       Ni637   1.908       .  S
O631        C641   1.277       .  A
O632       Ni637   1.903       .  S
O632        C642   1.277       .  A
O633       Ni638   1.913       .  S
O633        C642   1.279       .  A
O634       Ni638   1.916       .  S
O634        C641   1.280       .  A
O635       Ni638   1.910       .  S
O635        C640   1.277       .  A
O636       Ni638   1.914       .  S
O636        C639   1.279       .  A
Ni637      Ni638   2.396       .  S
C639       C1537   1.436       .  S
C640       C1523   1.430       .  S
C641       C1532   1.428       .  S
C642       C1555   1.423       .  S
O643       Ni651   1.936       .  S
O643        C653   1.284       .  A
O644       Ni651   1.934       .  S
O644        C654   1.284       .  A
O645       Ni651   1.902       .  S
O645        C655   1.275       .  A
O646       Ni651   1.906       .  S
O646        C656   1.276       .  A
O647       Ni652   1.930       .  S
O647        C656   1.283       .  A
O648       Ni652   1.926       .  S
O648        C655   1.283       .  A
O649       Ni652   1.916       .  S
O649        C654   1.278       .  A
O650       Ni652   1.918       .  S
O650        C653   1.279       .  A
Ni651      Ni652   2.393       .  S
C653       C1546   1.447       .  S
C654       C1755   1.444       .  S
C655       C1669   1.430       .  S
C656       C1536   1.435       .  S
O657       Ni665   1.925       .  S
O657        C667   1.281       .  A
O658       Ni665   1.923       .  S
O658        C668   1.281       .  A
O659       Ni665   1.918       .  S
O659        C669   1.280       .  A
O660       Ni665   1.915       .  S
O660        C670   1.278       .  A
O661       Ni666   1.913       .  S
O661        C670   1.279       .  A
O662       Ni666   1.919       .  S
O662        C669   1.280       .  A
O663       Ni666   1.925       .  S
O663        C668   1.281       .  A
O664       Ni666   1.927       .  S
O664        C667   1.282       .  A
Ni665      Ni666   2.393       .  S
C667       C1529   1.446       .  S
C668       C1745   1.443       .  S
C669       C1540   1.436       .  S
C670       C1688   1.430       .  S
O671       Ni679   1.929       .  S
O671        C681   1.283       .  A
O672       Ni679   1.924       .  S
O672        C682   1.282       .  A
O673       Ni679   1.913       .  S
O673        C683   1.278       .  A
O674       Ni679   1.910       .  S
O674        C684   1.277       .  A
O675       Ni680   1.926       .  S
O675        C684   1.282       .  A
O676       Ni680   1.929       .  S
O676        C683   1.283       .  A
O677       Ni680   1.908       .  S
O677        C682   1.276       .  A
O678       Ni680   1.911       .  S
O678        C681   1.277       .  A
Ni679      Ni680   2.393       .  S
C681       C1543   1.438       .  S
C682       C1604   1.433       .  S
C683       C1542   1.439       .  S
C684       C1634   1.435       .  S
O685       Ni693   1.935       .  S
O685        C695   1.285       .  A
O686       Ni693   1.931       .  S
O686        C696   1.285       .  A
O687       Ni693   1.903       .  S
O687        C697   1.274       .  A
O688       Ni693   1.904       .  S
O688        C698   1.276       .  A
O689       Ni694   1.927       .  S
O689        C698   1.283       .  A
O690       Ni694   1.924       .  S
O690        C697   1.283       .  A
O691       Ni694   1.898       .  S
O691        C696   1.274       .  A
O692       Ni694   1.902       .  S
O692        C695   1.275       .  A
Ni693      Ni694   2.395       .  S
C695       C1528   1.437       .  S
C696       C1521   1.431       .  S
C697       C1642   1.430       .  S
C698       C1547   1.433       .  S
C699       C1519   1.444       .  S
C699        C700   1.399       .  A
C699        C704   1.406       .  A
C700        C701   1.399       .  A
C700        H705   1.085       .  S
C701       C1518   1.442       .  S
C701        C702   1.405       .  A
C702        C703   1.405       .  A
C702        H706   1.084       .  S
C703       C1516   1.450       .  S
C703        C704   1.407       .  A
C704        H707   1.084       .  S
O708       Ni716   1.919       .  S
O708        C718   1.279       .  A
O709       Ni716   1.920       .  S
O709        C719   1.279       .  A
O710       Ni716   1.933       .  S
O710        C720   1.284       .  A
O711       Ni716   1.934       .  S
O711        C721   1.284       .  A
O712       Ni717   1.922       .  S
O712        C721   1.280       .  A
O713       Ni717   1.922       .  S
O713        C720   1.279       .  A
O714       Ni717   1.933       .  S
O714        C719   1.284       .  A
O715       Ni717   1.933       .  S
O715        C718   1.283       .  A
Ni716      Ni717   2.390       .  S
C718       C1515   1.446       .  S
C719       C1758   1.447       .  S
C720       C1621   1.448       .  S
C721       C1513   1.448       .  S
C722       C1510   1.449       .  S
C722        C723   1.409       .  A
C722        C727   1.401       .  A
C723        C724   1.408       .  A
C723        H728   1.084       .  S
C724       C1512   1.450   1_554  S
C724        C725   1.403       .  A
C725        C726   1.402       .  A
C725        H729   1.085       .  S
C726       C1508   1.442       .  S
C726        C727   1.401       .  A
C727        H730   1.085       .  S
C731       C1502   1.440       .  S
C731        C732   1.405       .  A
C731        C736   1.397       .  A
C732        C733   1.406       .  A
C732        H737   1.084       .  S
C733       C1506   1.445   1_554  S
C733        C734   1.403       .  A
C734        C735   1.401       .  A
C734        H738   1.085       .  S
C735       C1503   1.437       .  S
C735        C736   1.397       .  A
C736        H739   1.085       .  S
C740       C1499   1.448       .  S
C740        C741   1.408       .  A
C740        C745   1.402       .  A
C741        C742   1.408       .  A
C741        H746   1.084       .  S
C742       C1514   1.453       .  S
C742        C743   1.404       .  A
C743        C744   1.404       .  A
C743        H747   1.084       .  S
C744       C1498   1.445       .  S
C744        C745   1.401       .  A
C745        H748   1.085       .  S
O749       Ni757   1.913       .  S
O749        C759   1.278       .  A
O750       Ni757   1.911       .  S
O750        C760   1.277       .  A
O751       Ni757   1.924       .  S
O751        C761   1.282       .  A
O752       Ni757   1.928       .  S
O752        C762   1.283       .  A
O753       Ni758   1.908       .  S
O753        C762   1.277       .  A
O754       Ni758   1.906       .  S
O754        C761   1.276       .  A
O755       Ni758   1.923       .  S
O755        C760   1.282       .  A
O756       Ni758   1.929       .  S
O756        C759   1.283       .  A
Ni757      Ni758   2.394       .  S
C759       C1497   1.439       .  S
C760       C1651   1.434       .  S
C761       C1680   1.432       .  S
C762       C1501   1.435       .  S
O763       Ni771   1.923       .  S
O763        C773   1.280       .  A
O764       Ni771   1.918       .  S
O764        C774   1.280       .  A
O765       Ni771   1.915       .  S
O765        C775   1.279       .  A
O766       Ni771   1.910       .  S
O766        C776   1.277       .  A
O767       Ni772   1.917       .  S
O767        C776   1.280       .  A
O768       Ni772   1.923       .  S
O768        C775   1.281       .  A
O769       Ni772   1.923       .  S
O769        C774   1.281       .  A
O770       Ni772   1.926       .  S
O770        C773   1.282       .  A
Ni771      Ni772   2.393       .  S
C773       C1500   1.444       .  S
C774       C1553   1.438       .  S
C775       C1507   1.436       .  S
C776       C1744   1.430       .  S
O777       Ni785   1.925       .  S
O777        C787   1.281       .  A
O778       Ni785   1.924       .  S
O778        C788   1.281       .  A
O779       Ni785   1.921       .  S
O779        C789   1.280       .  A
O780       Ni785   1.923       .  S
O780        C790   1.281       .  A
O781       Ni786   1.920       .  S
O781        C790   1.280       .  A
O782       Ni786   1.920       .  S
O782        C789   1.280       .  A
O783       Ni786   1.926       .  S
O783        C788   1.282       .  A
O784       Ni786   1.927       .  S
O784        C787   1.281       .  A
Ni785      Ni786   2.392       .  S
C787       C1511   1.445       .  S
C788       C1662   1.444       .  S
C789       C1495   1.438       .  S
C790       C1505   1.440       .  S
O791       Ni799   1.929       .  S
O791        C801   1.283       .  A
O792       Ni799   1.925       .  S
O792        C802   1.283       .  A
O793       Ni799   1.911       .  S
O793        C803   1.277       .  A
O794       Ni799   1.908       .  S
O794        C804   1.276       .  A
O795       Ni800   1.933       .  S
O795        C804   1.285       .  A
O796       Ni800   1.938       .  S
O796        C803   1.285       .  A
O797       Ni800   1.907       .  S
O797        C802   1.275       .  A
O798       Ni800   1.908       .  S
O798        C801   1.277       .  A
Ni799      Ni800   2.393       .  S
C801       C1517   1.436       .  S
C802       C1640   1.433       .  S
C803       C1509   1.443       .  S
C804       C1610   1.439       .  S
O805       Ni813   1.920       .  S
O805        C815   1.281       .  A
O806       Ni813   1.917       .  S
O806        C816   1.280       .  A
O807       Ni813   1.913       .  S
O807        C817   1.278       .  A
O808       Ni813   1.917       .  S
O808        C818   1.279       .  A
O809       Ni814   1.926       .  S
O809        C818   1.282       .  A
O810       Ni814   1.921       .  S
O810        C817   1.281       .  A
O811       Ni814   1.907       .  S
O811        C816   1.278       .  A
O812       Ni814   1.912       .  S
O812        C815   1.278       .  A
Ni813      Ni814   2.395       .  S
C815       C1504   1.432       .  S
C816       C1563   1.428       .  S
C817       C1600   1.435       .  S
C818       C1520   1.440       .  S
O819       Ni825   1.926       .  S
O819        C840   1.269       .  A
O820       Ni843   1.899       .  S
O820        C829   1.266       .  A
O821       Ni825   1.904       .  S
O821       Ni843   1.900       .  S
O821       Ni837   1.910       .  S
O821        H844   0.966       .  S
C822        O839   1.271       .  A
C822        O831   1.275       .  A
C822       C1698   1.429       .  S
O823       Ni842   1.925       .  S
O823        C829   1.269       .  A
O824       Ni842   1.902       .  S
O824        C826   1.266       .  A
Ni825       O828   1.923       .  S
Ni825       O830   1.891       .  S
C826        O836   1.274       .  A
C826       C1496   1.437       .  S
O827       Ni843   1.903       .  S
O827        C833   1.270       .  A
O828        C833   1.274       .  A
C829       C1524   1.429       .  S
O830        C832   1.265       .  A
O831       Ni842   1.921       .  S
C832        O838   1.277       .  A
C832       C1490   1.434       .  S
C833       C1491   1.426       .  S
H834        O835   0.966       .  S
O835       Ni843   1.908       .  S
O835       Ni837   1.897       .  S
O835       Ni842   1.906       .  S
O836       Ni837   1.937       .  S
Ni837       O841   1.896       .  S
Ni837       O839   1.911       .  S
O838       Ni843   1.945       .  S
C840        O841   1.265       .  A
C840       C1493   1.428       .  S
O845       Ni851   1.925   1_655  S
O845        C866   1.271       .  A
O846       Ni869   1.890       .  S
O846        C855   1.264       .  A
O847       Ni851   1.901       .  S
O847       Ni869   1.890   1_545  S
O847       Ni863   1.901   1_455  S
O847        H870   0.966       .  S
C848        O865   1.270       .  A
C848        O857   1.275       .  A
C848       C1488   1.419       .  S
O849       Ni868   1.925   1_465  S
O849        C855   1.270       .  A
O850       Ni868   1.904   1_455  S
O850        C852   1.266       .  A
Ni851       O854   1.922   1_545  S
Ni851       O856   1.908   1_445  S
C852        O862   1.277       .  A
C852       C1481   1.445       .  S
O853       Ni869   1.903       .  S
O853        C859   1.271       .  A
O854        C859   1.276       .  A
C855       C1568   1.424       .  S
O856        C858   1.267       .  A
O857       Ni868   1.921       .  S
C858        O864   1.276       .  A
C858       C1702   1.447       .  S
C859       C1486   1.422       .  S
H860        O861   0.966   1_565  S
O861       Ni869   1.904   1_645  S
O861       Ni863   1.892       .  S
O861       Ni868   1.901       .  S
O862       Ni863   1.949   1_455  S
Ni863       O867   1.891       .  S
Ni863       O865   1.898       .  S
O864       Ni869   1.946   1_655  S
C866        O867   1.264       .  A
C866       C1484   1.425       .  S
C871       C1480   1.437       .  S
C871        C872   1.399       .  A
C871        C876   1.402       .  A
C872        C873   1.399       .  A
C872        H877   1.085       .  S
C873       C1475   1.441       .  S
C873        C874   1.404       .  A
C874        C875   1.405       .  A
C874        H878   1.084       .  S
C875       C1478   1.445       .  S
C875        C876   1.402       .  A
C876        H879   1.085       .  S
C880       C1474   1.444       .  S
C880        C881   1.402       .  A
C880        C885   1.404       .  A
C881        C882   1.402       .  A
C881        H886   1.085       .  S
C882       C1471   1.443       .  S
C882        C883   1.402       .  A
C883        C884   1.402       .  A
C883        H887   1.085       .  S
C884       C1469   1.444       .  S
C884        C885   1.404       .  A
C885        H888   1.084       .  S
C889       C1466   1.445       .  S
C889        C890   1.401       .  A
C889        C894   1.406       .  A
C890        C891   1.399       .  A
C890        H895   1.085       .  S
C891       C1468   1.439       .  S
C891        C892   1.401       .  A
C892        C893   1.401       .  A
C892        H896   1.085       .  S
C893       C1463   1.446       .  S
C893        C894   1.407       .  A
C894        H897   1.084       .  S
O898       Ni906   1.923       .  S
O898        C908   1.281       .  A
O899       Ni906   1.922       .  S
O899        C909   1.281       .  A
O900       Ni906   1.919       .  S
O900        C910   1.280       .  A
O901       Ni906   1.921       .  S
O901        C911   1.280       .  A
O902       Ni907   1.921       .  S
O902        C911   1.280       .  A
O903       Ni907   1.919       .  S
O903        C910   1.280       .  A
O904       Ni907   1.917       .  S
O904        C909   1.280       .  A
O905       Ni907   1.920       .  S
O905        C908   1.280       .  A
Ni906      Ni907   2.393       .  S
C908       C1465   1.440       .  S
C909       C1561   1.437       .  S
C910       C1742   1.437       .  S
C911       C1470   1.439       .  S
O912       Ni920   1.926       .  S
O912        C922   1.282       .  A
O913       Ni920   1.923       .  S
O913        C923   1.282       .  A
O914       Ni920   1.912       .  S
O914        C924   1.278       .  A
O915       Ni920   1.905       .  S
O915        C925   1.276       .  A
O916       Ni921   1.925       .  S
O916        C925   1.283       .  A
O917       Ni921   1.933       .  S
O917        C924   1.284       .  A
O918       Ni921   1.906       .  S
O918        C923   1.276       .  A
O919       Ni921   1.909       .  S
O919        C922   1.277       .  A
Ni920      Ni921   2.394       .  S
C922       C1476   1.435       .  S
C923       C1668   1.431       .  S
C924       C1464   1.441       .  S
C925       C1629   1.432       .  S
C926       C1457   1.431       .  S
C926        C927   1.399       .  A
C926        C931   1.395       .  A
C927        C928   1.400       .  A
C927        H932   1.085       .  S
C928       C1462   1.435       .  S
C928        C929   1.400       .  A
C929        C930   1.400       .  A
C929        H933   1.085       .  S
C930       C1459   1.430       .  S
C930        C931   1.397       .  A
C931        H934   1.085       .  S
O935       Ni943   1.916       .  S
O935        C945   1.280       .  A
O936       Ni943   1.911       .  S
O936        C946   1.280       .  A
O937       Ni943   1.908       .  S
O937        C947   1.277       .  A
O938       Ni943   1.905       .  S
O938        C948   1.276       .  A
O939       Ni944   1.920       .  S
O939        C948   1.282       .  A
O940       Ni944   1.925       .  S
O940        C947   1.282       .  A
O941       Ni944   1.902       .  S
O941        C946   1.275       .  A
O942       Ni944   1.905       .  S
O942        C945   1.277       .  A
Ni943      Ni944   2.397       .  S
C945       C1458   1.425       .  S
C946       C1760   1.420       .  S
C947       C1467   1.433       .  S
C948       C1492   1.428       .  S
O949       Ni957   1.915       .  S
O949        C959   1.279       .  A
O950       Ni957   1.911       .  S
O950        C960   1.278       .  A
O951       Ni957   1.917       .  S
O951        C961   1.280       .  A
O952       Ni957   1.912       .  S
O952        C962   1.278       .  A
O953       Ni958   1.915       .  S
O953        C962   1.280       .  A
O954       Ni958   1.921       .  S
O954        C961   1.281       .  A
O955       Ni958   1.911       .  S
O955        C960   1.279       .  A
O956       Ni958   1.916       .  S
O956        C959   1.279       .  A
Ni957      Ni958   2.395       .  S
C959       C1479   1.432       .  S
C960       C1620   1.427       .  S
C961       C1472   1.437       .  S
C962       C1664   1.430       .  S
O963       Ni971   1.915       .  S
O963        C973   1.279       .  A
O964       Ni971   1.909       .  S
O964        C974   1.279       .  A
O965       Ni971   1.915       .  S
O965        C975   1.280       .  A
O966       Ni971   1.920       .  S
O966        C976   1.280       .  A
O967       Ni972   1.922       .  S
O967        C976   1.281       .  A
O968       Ni972   1.918       .  S
O968        C975   1.280       .  A
O969       Ni972   1.911       .  S
O969        C974   1.277       .  A
O970       Ni972   1.913       .  S
O970        C973   1.279       .  A
Ni971      Ni972   2.395       .  S
C973       C1461   1.430       .  S
C974       C1483   1.426       .  S
C975       C1456   1.434       .  S
C976       C1473   1.440       .  S
O977       Ni985   1.908       .  S
O977        C987   1.277       .  A
O978       Ni985   1.907       .  S
O978        C988   1.278       .  A
O979       Ni985   1.925       .  S
O979        C989   1.281       .  A
O980       Ni985   1.918       .  S
O980        C990   1.281       .  A
O981       Ni986   1.915       .  S
O981        C990   1.279       .  A
O982       Ni986   1.920       .  S
O982        C989   1.280       .  A
O983       Ni986   1.913       .  S
O983        C988   1.279       .  A
O984       Ni986   1.914       .  S
O984        C987   1.279       .  A
Ni985      Ni986   2.395       .  S
C987       C1460   1.425       .  S
C988       C1598   1.426       .  S
C989       C1477   1.440       .  S
C990       C1552   1.433       .  S
C991       C1453   1.442       .  S
C991        C992   1.405       .  A
C991        C996   1.400       .  A
C992        C993   1.405       .  A
C992        H997   1.084       .  S
C993       C1451   1.444   1_455  S
C993        C994   1.401       .  A
C994        C995   1.401       .  A
C994        H998   1.085       .  S
C995       C1450   1.439       .  S
C995        C996   1.399       .  A
C996        H999   1.085       .  S
O1000     Ni1008   1.913       .  S
O1000      C1010   1.279       .  A
O1001     Ni1008   1.909       .  S
O1001      C1011   1.277       .  A
O1002     Ni1008   1.921       .  S
O1002      C1012   1.281       .  A
O1003     Ni1008   1.916       .  S
O1003      C1013   1.281       .  A
O1004     Ni1009   1.909       .  S
O1004      C1013   1.277       .  A
O1005     Ni1009   1.913       .  S
O1005      C1012   1.278       .  A
O1006     Ni1009   1.918       .  S
O1006      C1011   1.281       .  A
O1007     Ni1009   1.924       .  S
O1007      C1010   1.281       .  A
Ni1008    Ni1009   2.395       .  S
C1010      C1447   1.436       .  S
C1011      C1613   1.429       .  S
C1012      C1449   1.434       .  S
C1013      C1685   1.429       .  S
C1014      C1446   1.435       .  S
C1014      C1015   1.398       .  A
C1014      C1019   1.402       .  A
C1015      C1016   1.396       .  A
C1015      H1020   1.085       .  S
C1016      C1443   1.428       .  S
C1016      C1017   1.397       .  A
C1017      C1018   1.396       .  A
C1017      H1021   1.085       .  S
C1018      C1441   1.436       .  S
C1018      C1019   1.403       .  A
C1019      H1022   1.084       .  S
C1023      C1437   1.446       .  S
C1023      C1024   1.401       .  A
C1023      C1028   1.406       .  A
C1024      C1025   1.402       .  A
C1024      H1029   1.085       .  S
C1025      C1448   1.441       .  S
C1025      C1026   1.401       .  A
C1026      C1027   1.403       .  A
C1026      H1030   1.085       .  S
C1027      C1439   1.446       .  S
C1027      C1028   1.405       .  A
C1028      H1031   1.084       .  S
O1032     Ni1040   1.927       .  S
O1032      C1042   1.282       .  A
O1033     Ni1040   1.925       .  S
O1033      C1043   1.283       .  A
O1034     Ni1040   1.909       .  S
O1034      C1044   1.276       .  A
O1035     Ni1040   1.913       .  S
O1035      C1045   1.278       .  A
O1036     Ni1041   1.932       .  S
O1036      C1045   1.283       .  A
O1037     Ni1041   1.927       .  S
O1037      C1044   1.283       .  A
O1038     Ni1041   1.902       .  S
O1038      C1043   1.275       .  A
O1039     Ni1041   1.901       .  S
O1039      C1042   1.275       .  A
Ni1040    Ni1041   2.394       .  S
C1042      C1442   1.430       .  S
C1043      C1752   1.431       .  S
C1044      C1655   1.435       .  S
C1045      C1438   1.440       .  S
C1046      C1433   1.443       .  S
C1046      C1047   1.402       .  A
C1046      C1051   1.404       .  A
C1047      C1048   1.400       .  A
C1047      H1052   1.085       .  S
C1048      C1436   1.437       .  S
C1048      C1049   1.398       .  A
C1049      C1050   1.399       .  A
C1049      H1053   1.085       .  S
C1050      C1432   1.440   1_455  S
C1050      C1051   1.405       .  A
C1051      H1054   1.084       .  S
O1055     Ni1063   1.918       .  S
O1055      C1065   1.280       .  A
O1056     Ni1063   1.917       .  S
O1056      C1066   1.279       .  A
O1057     Ni1063   1.925       .  S
O1057      C1067   1.281       .  A
O1058     Ni1063   1.923       .  S
O1058      C1068   1.282       .  A
O1059     Ni1064   1.918       .  S
O1059      C1068   1.278       .  A
O1060     Ni1064   1.917       .  S
O1060      C1067   1.279       .  A
O1061     Ni1064   1.923       .  S
O1061      C1066   1.281       .  A
O1062     Ni1064   1.926       .  S
O1062      C1065   1.282       .  A
Ni1063    Ni1064   2.393       .  S
C1065      C1440   1.441       .  S
C1066      C1429   1.437       .  S
C1067      C1434   1.438       .  S
C1068      C1675   1.439       .  S
O1069     Ni1077   1.926       .  S
O1069      C1079   1.282       .  A
O1070     Ni1077   1.922       .  S
O1070      C1080   1.281       .  A
O1071     Ni1077   1.911       .  S
O1071      C1081   1.277       .  A
O1072     Ni1077   1.917       .  S
O1072      C1082   1.279       .  A
O1073     Ni1078   1.924       .  S
O1073      C1082   1.282       .  A
O1074     Ni1078   1.917       .  S
O1074      C1081   1.281       .  A
O1075     Ni1078   1.904       .  S
O1075      C1080   1.277       .  A
O1076     Ni1078   1.909       .  S
O1076      C1079   1.277       .  A
Ni1077    Ni1078   2.395       .  S
C1079      C1431   1.435       .  S
C1080      C1624   1.429       .  S
C1081      C1494   1.430       .  S
C1082      C1452   1.439       .  S
O1083     Ni1091   1.924       .  S
O1083      C1093   1.281       .  A
O1084     Ni1091   1.921       .  S
O1084      C1094   1.281       .  A
O1085     Ni1091   1.913       .  S
O1085      C1095   1.278       .  A
O1086     Ni1091   1.908       .  S
O1086      C1096   1.277       .  A
O1087     Ni1092   1.908       .  S
O1087      C1096   1.278       .  A
O1088     Ni1092   1.914       .  S
O1088      C1095   1.280       .  A
O1089     Ni1092   1.914       .  S
O1089      C1094   1.279       .  A
O1090     Ni1092   1.917       .  S
O1090      C1093   1.279       .  A
Ni1091    Ni1092   2.395       .  S
C1093      C1454   1.438       .  S
C1094      C1627   1.435       .  S
C1095      C1445   1.430       .  S
C1096      C1485   1.422       .  S
O1097     Ni1105   1.918       .  S
O1097      C1107   1.280       .  A
O1098     Ni1105   1.910       .  S
O1098      C1108   1.279       .  A
O1099     Ni1105   1.900       .  S
O1099      C1109   1.275       .  A
O1100     Ni1105   1.903       .  S
O1100      C1110   1.277       .  A
O1101     Ni1106   1.913       .  S
O1101      C1110   1.279       .  A
O1102     Ni1106   1.907       .  S
O1102      C1109   1.279       .  A
O1103     Ni1106   1.906       .  S
O1103      C1108   1.277       .  A
O1104     Ni1106   1.912       .  S
O1104      C1107   1.279       .  A
Ni1105    Ni1106   2.398       .  S
C1107      C1435   1.432       .  S
C1108      C1648   1.422       .  S
C1109      C1637   1.417       .  S
C1110      C1444   1.423       .  S
C1111      C1425   1.435       .  S
C1111      C1112   1.397       .  A
C1111      C1116   1.403       .  A
C1112      C1113   1.399       .  A
C1112      H1117   1.085       .  S
C1113      C1427   1.425       .  S
C1113      C1114   1.392       .  A
C1114      C1115   1.394       .  A
C1114      H1118   1.085       .  S
C1115      C1424   1.429       .  S
C1115      C1116   1.400       .  A
C1116      H1119   1.084       .  S
O1120     Ni1128   1.913       .  S
O1120      C1130   1.278       .  A
O1121     Ni1128   1.911       .  S
O1121      C1131   1.277       .  A
O1122     Ni1128   1.924       .  S
O1122      C1132   1.283       .  A
O1123     Ni1128   1.926       .  S
O1123      C1133   1.282       .  A
O1124     Ni1129   1.901       .  S
O1124      C1133   1.275       .  A
O1125     Ni1129   1.903       .  S
O1125      C1132   1.275       .  A
O1126     Ni1129   1.924       .  S
O1126      C1131   1.283       .  A
O1127     Ni1129   1.929       .  S
O1127      C1130   1.283       .  A
Ni1128    Ni1129   2.395       .  S
C1130      C1421   1.439       .  S
C1131      C1739   1.434       .  S
C1132      C1750   1.431       .  S
C1133      C1426   1.429       .  S
C1134      C1417   1.445       .  S
C1134      C1135   1.403       .  A
C1134      C1139   1.404       .  A
C1135      C1136   1.401       .  A
C1135      H1140   1.085       .  S
C1136      C1422   1.445       .  S
C1136      C1137   1.404       .  A
C1137      C1138   1.403       .  A
C1137      H1141   1.084       .  S
C1138      C1419   1.447       .  S
C1138      C1139   1.405       .  A
C1139      H1142   1.084       .  S
C1143      C1411   1.437       .  S
C1143      C1144   1.398       .  A
C1143      C1148   1.403       .  A
C1144      C1145   1.398       .  A
C1144      H1149   1.085       .  S
C1145      C1416   1.438   1_655  S
C1145      C1146   1.403       .  A
C1146      C1147   1.404       .  A
C1146      H1150   1.084       .  S
C1147      C1414   1.444       .  S
C1147      C1148   1.403       .  A
C1148      H1151   1.084       .  S
C1152      C1405   1.442       .  S
C1152      C1153   1.406       .  A
C1152      C1157   1.399       .  A
C1153      C1154   1.407       .  A
C1153      H1158   1.084       .  S
C1154      C1409   1.447   1_655  S
C1154      C1155   1.402       .  A
C1155      C1156   1.402       .  A
C1155      H1159   1.085       .  S
C1156      C1407   1.438       .  S
C1156      C1157   1.398       .  A
C1157      H1160   1.085       .  S
O1161     Ni1169   1.923       .  S
O1161      C1171   1.282       .  A
O1162     Ni1169   1.920       .  S
O1162      C1172   1.281       .  A
O1163     Ni1169   1.909       .  S
O1163      C1173   1.277       .  A
O1164     Ni1169   1.915       .  S
O1164      C1174   1.278       .  A
O1165     Ni1170   1.931       .  S
O1165      C1174   1.283       .  A
O1166     Ni1170   1.923       .  S
O1166      C1173   1.282       .  A
O1167     Ni1170   1.906       .  S
O1167      C1172   1.277       .  A
O1168     Ni1170   1.908       .  S
O1168      C1171   1.277       .  A
Ni1169    Ni1170   2.394       .  S
C1171      C1415   1.432       .  S
C1172      C1672   1.429       .  S
C1173      C1684   1.433       .  S
C1174      C1410   1.441       .  S
O1175     Ni1183   1.924       .  S
O1175      C1185   1.282       .  A
O1176     Ni1183   1.923       .  S
O1176      C1186   1.281       .  A
O1177     Ni1183   1.919       .  S
O1177      C1187   1.280       .  A
O1178     Ni1183   1.914       .  S
O1178      C1188   1.278       .  A
O1179     Ni1184   1.916       .  S
O1179      C1188   1.280       .  A
O1180     Ni1184   1.924       .  S
O1180      C1187   1.281       .  A
O1181     Ni1184   1.915       .  S
O1181      C1186   1.279       .  A
O1182     Ni1184   1.916       .  S
O1182      C1185   1.279       .  A
Ni1183    Ni1184   2.394       .  S
C1185      C1406   1.438       .  S
C1186      C1489   1.437       .  S
C1187      C1418   1.440       .  S
C1188      C1404   1.431       .  S
O1189     Ni1197   1.913       .  S
O1189      C1199   1.279       .  A
O1190     Ni1197   1.909       .  S
O1190      C1200   1.279       .  A
O1191     Ni1197   1.920       .  S
O1191      C1201   1.280       .  A
O1192     Ni1197   1.916       .  S
O1192      C1202   1.279       .  A
O1193     Ni1198   1.918       .  S
O1193      C1202   1.281       .  A
O1194     Ni1198   1.923       .  S
O1194      C1201   1.281       .  A
O1195     Ni1198   1.893       .  S
O1195      C1200   1.274       .  A
O1196     Ni1198   1.895       .  S
O1196      C1199   1.275       .  A
Ni1197    Ni1198   2.397       .  S
C1199      C1428   1.418       .  S
C1200      C1644   1.413       .  S
C1201      C1413   1.439       .  S
C1202      C1558   1.434       .  S
O1203     Ni1211   1.929       .  S
O1203      C1213   1.282       .  A
O1204     Ni1211   1.925       .  S
O1204      C1214   1.282       .  A
O1205     Ni1211   1.910       .  S
O1205      C1215   1.277       .  A
O1206     Ni1211   1.906       .  S
O1206      C1216   1.276       .  A
O1207     Ni1212   1.916       .  S
O1207      C1216   1.281       .  A
O1208     Ni1212   1.921       .  S
O1208      C1215   1.281       .  A
O1209     Ni1212   1.914       .  S
O1209      C1214   1.278       .  A
O1210     Ni1212   1.918       .  S
O1210      C1213   1.279       .  A
Ni1211    Ni1212   2.394       .  S
C1213      C1420   1.442       .  S
C1214      C1608   1.436       .  S
C1215      C1412   1.432       .  S
C1216      C1616   1.427       .  S
O1217     Ni1225   1.906       .  S
O1217      C1227   1.276       .  A
O1218     Ni1225   1.902       .  S
O1218      C1228   1.276       .  A
O1219     Ni1225   1.924       .  S
O1219      C1229   1.282       .  A
O1220     Ni1225   1.918       .  S
O1220      C1230   1.281       .  A
O1221     Ni1226   1.903       .  S
O1221      C1230   1.276       .  A
O1222     Ni1226   1.907       .  S
O1222      C1229   1.277       .  A
O1223     Ni1226   1.910       .  S
O1223      C1228   1.279       .  A
O1224     Ni1226   1.914       .  S
O1224      C1227   1.280       .  A
Ni1225    Ni1226   2.397       .  S
C1227      C1423   1.425       .  S
C1228      C1487   1.420       .  S
C1229      C1408   1.432       .  S
C1230      C1565   1.426       .  S
O1231     Ni1237   1.919   1_455  S
O1231      C1252   1.267       .  A
O1232     Ni1255   1.894       .  S
O1232      C1241   1.265       .  A
O1233     Ni1237   1.903       .  S
O1233     Ni1255   1.895       .  S
O1233     Ni1249   1.913   1_655  S
O1233      H1256   0.966       .  S
C1234      O1251   1.273       .  A
C1234      O1243   1.277       .  A
C1234      C1402   1.434       .  S
O1235     Ni1254   1.935   1_655  S
O1235      C1241   1.272       .  A
O1236     Ni1254   1.893   1_655  S
O1236      C1238   1.266       .  A
Ni1237     O1240   1.918       .  S
Ni1237     O1242   1.901   1_655  S
C1238      O1248   1.278       .  A
C1238      C1689   1.437       .  S
O1239     Ni1255   1.916       .  S
O1239      C1245   1.272       .  A
O1240      C1245   1.274       .  A
C1241      C1455   1.433       .  S
O1242      C1244   1.266       .  A
O1243     Ni1254   1.932       .  S
C1244      O1250   1.275       .  A
C1244      C1430   1.435       .  S
C1245      C1403   1.430       .  S
H1246      O1247   0.966       .  S
O1247     Ni1255   1.910   1_455  S
O1247     Ni1249   1.899       .  S
O1247     Ni1254   1.900       .  S
O1248     Ni1249   1.951   1_655  S
Ni1249     O1253   1.904       .  S
Ni1249     O1251   1.909       .  S
O1250     Ni1255   1.938   1_455  S
C1252      O1253   1.269       .  A
C1252      C1522   1.430       .  S
C1257      C1400   1.442   1_455  S
C1257      C1258   1.401       .  A
C1257      C1262   1.403       .  A
C1258      C1259   1.401       .  A
C1258      H1263   1.085       .  S
C1259      C1398   1.438   1_554  S
C1259      C1260   1.399       .  A
C1260      C1261   1.400       .  A
C1260      H1264   1.085       .  S
C1261      C1395   1.439       .  S
C1261      C1262   1.402       .  A
C1262      H1265   1.084       .  S
O1266     Ni1274   1.916       .  S
O1266      C1276   1.279       .  A
O1267     Ni1274   1.920       .  S
O1267      C1277   1.280       .  A
O1268     Ni1274   1.942       .  S
O1268      C1278   1.285       .  A
O1269     Ni1274   1.939       .  S
O1269      C1279   1.284       .  A
O1270     Ni1275   1.935       .  S
O1270      C1279   1.283       .  A
O1271     Ni1275   1.938       .  S
O1271      C1278   1.284       .  A
O1272     Ni1275   1.921       .  S
O1272      C1277   1.280       .  A
O1273     Ni1275   1.918       .  S
O1273      C1276   1.279       .  A
Ni1274    Ni1275   2.389       .  S
C1276      C1396   1.434       .  S
C1277      C1678   1.439       .  S
C1278      C1394   1.463       .  S
C1279      C1635   1.460       .  S
C1280      C1387   1.439       .  S
C1280      C1281   1.406       .  A
C1280      C1285   1.396       .  A
C1281      C1282   1.407       .  A
C1281      H1286   1.084       .  S
C1282      C1391   1.443   1_545  S
C1282      C1283   1.401       .  A
C1283      C1284   1.399       .  A
C1283      H1287   1.085       .  S
C1284      C1389   1.432   1_455  S
C1284      C1285   1.396       .  A
C1285      H1288   1.085       .  S
C1289      C1385   1.458       .  S
C1289      C1290   1.403       .  A
C1289      C1294   1.412       .  A
C1290      C1291   1.403       .  A
C1290      H1295   1.085       .  S
C1291      C1384   1.458       .  S
C1291      C1292   1.411       .  A
C1292      C1293   1.412       .  A
C1292      H1296   1.084       .  S
C1293      C1393   1.468       .  S
C1293      C1294   1.413       .  A
C1294      H1297   1.084       .  S
O1298     Ni1306   1.938       .  S
O1298      C1308   1.285       .  A
O1299     Ni1306   1.934       .  S
O1299      C1309   1.284       .  A
O1300     Ni1306   1.908       .  S
O1300      C1310   1.276       .  A
O1301     Ni1306   1.906       .  S
O1301      C1311   1.276       .  A
O1302     Ni1307   1.924       .  S
O1302      C1311   1.282       .  A
O1303     Ni1307   1.926       .  S
O1303      C1310   1.282       .  A
O1304     Ni1307   1.920       .  S
O1304      C1309   1.280       .  A
O1305     Ni1307   1.926       .  S
O1305      C1308   1.280       .  A
Ni1306    Ni1307   2.392       .  S
C1308      C1383   1.453       .  S
C1309      C1482   1.447       .  S
C1310      C1388   1.434       .  S
C1311      C1665   1.431       .  S
C1312      C1381   1.446   1_554  S
C1312      C1313   1.405       .  A
C1312      C1317   1.402       .  A
C1313      C1314   1.406       .  A
C1313      H1318   1.084       .  S
C1314      C1380   1.446   1_545  S
C1314      C1315   1.402       .  A
C1315      C1316   1.402       .  A
C1315      H1319   1.085       .  S
C1316      C1378   1.442       .  S
C1316      C1317   1.401       .  A
C1317      H1320   1.085       .  S
O1321     Ni1329   1.941       .  S
O1321      C1331   1.285       .  A
O1322     Ni1329   1.937       .  S
O1322      C1332   1.284       .  A
O1323     Ni1329   1.914       .  S
O1323      C1333   1.278       .  A
O1324     Ni1329   1.916       .  S
O1324      C1334   1.279       .  A
O1325     Ni1330   1.921       .  S
O1325      C1334   1.281       .  A
O1326     Ni1330   1.915       .  S
O1326      C1333   1.280       .  A
O1327     Ni1330   1.919       .  S
O1327      C1332   1.279       .  A
O1328     Ni1330   1.923       .  S
O1328      C1331   1.280       .  A
Ni1329    Ni1330   2.392       .  S
C1331      C1386   1.454       .  S
C1332      C1596   1.448       .  S
C1333      C1737   1.431       .  S
C1334      C1377   1.436       .  S
O1335     Ni1343   1.911       .  S
O1335      C1345   1.278       .  A
O1336     Ni1343   1.910       .  S
O1336      C1346   1.277       .  A
O1337     Ni1343   1.924       .  S
O1337      C1347   1.281       .  A
O1338     Ni1343   1.919       .  S
O1338      C1348   1.281       .  A
O1339     Ni1344   1.917       .  S
O1339      C1348   1.279       .  A
O1340     Ni1344   1.921       .  S
O1340      C1347   1.280       .  A
O1341     Ni1344   1.916       .  S
O1341      C1346   1.281       .  A
O1342     Ni1344   1.921       .  S
O1342      C1345   1.281       .  A
Ni1343    Ni1344   2.394       .  S
C1345      C1397   1.432       .  S
C1346      C1626   1.429       .  S
C1347      C1382   1.441       .  S
C1348      C1401   1.435       .  S
O1349     Ni1357   1.917       .  S
O1349      C1359   1.279       .  A
O1350     Ni1357   1.916       .  S
O1350      C1360   1.279       .  A
O1351     Ni1357   1.927       .  S
O1351      C1361   1.282       .  A
O1352     Ni1357   1.926       .  S
O1352      C1362   1.282       .  A
O1353     Ni1358   1.911       .  S
O1353      C1362   1.278       .  A
O1354     Ni1358   1.913       .  S
O1354      C1361   1.278       .  A
O1355     Ni1358   1.928       .  S
O1355      C1360   1.282       .  A
O1356     Ni1358   1.930       .  S
O1356      C1359   1.283       .  A
Ni1357    Ni1358   2.393       .  S
C1359      C1379   1.442       .  S
C1360      C1605   1.441       .  S
C1361      C1392   1.438       .  S
C1362      C1645   1.436       .  S
O1363     Ni1371   1.922       .  S
O1363      C1373   1.281       .  A
O1364     Ni1371   1.917       .  S
O1364      C1374   1.280       .  A
O1365     Ni1371   1.902       .  S
O1365      C1375   1.277       .  A
O1366     Ni1371   1.908       .  S
O1366      C1376   1.277       .  A
O1367     Ni1372   1.914       .  S
O1367      C1376   1.280       .  A
O1368     Ni1372   1.910       .  S
O1368      C1375   1.278       .  A
O1369     Ni1372   1.913       .  S
O1369      C1374   1.278       .  A
O1370     Ni1372   1.917       .  S
O1370      C1373   1.279       .  A
Ni1371    Ni1372   2.396       .  S
C1373      C1399   1.437       .  S
C1374      C1559   1.432       .  S
C1375      C1549   1.421       .  S
C1376      C1390   1.427       .  S
C1377      C1378   1.207       .  T
C1379      C1380   1.210       .  T
C1381      C1382   1.210       .  T
C1383      C1384   1.217       .  T
C1385      C1386   1.217       .  T
C1387      C1388   1.206       .  T
C1389      C1390   1.201       .  T
C1391      C1392   1.208       .  T
C1393      C1394   1.223       .  T
C1395      C1396   1.205       .  T
C1397      C1398   1.204       .  T
C1399      C1400   1.207       .  T
C1401      C1402   1.206       .  T
C1403      C1404   1.203       .  T
C1405      C1406   1.208       .  T
C1407      C1408   1.204       .  T
C1409      C1410   1.210       .  T
C1411      C1412   1.204       .  T
C1413      C1414   1.208       .  T
C1415      C1416   1.205       .  T
C1417      C1418   1.209       .  T
C1419      C1420   1.210       .  T
C1421      C1422   1.209       .  T
C1423      C1424   1.200       .  T
C1425      C1426   1.203       .  T
C1427      C1428   1.196       .  T
C1429      C1430   1.207       .  T
C1431      C1432   1.206       .  T
C1433      C1434   1.208       .  T
C1435      C1436   1.204       .  T
C1437      C1438   1.209       .  T
C1439      C1440   1.209       .  T
C1441      C1442   1.203       .  T
C1443      C1444   1.199       .  T
C1445      C1446   1.203       .  T
C1447      C1448   1.207       .  T
C1449      C1450   1.205       .  T
C1451      C1452   1.208       .  T
C1453      C1454   1.208       .  T
C1455      C1456   1.205       .  T
C1457      C1458   1.200       .  T
C1459      C1460   1.200       .  T
C1461      C1462   1.203       .  T
C1463      C1464   1.210       .  T
C1465      C1466   1.209       .  T
C1467      C1468   1.205       .  T
C1469      C1470   1.208       .  T
C1471      C1472   1.207   1_545  T
C1473      C1474   1.209       .  T
C1475      C1476   1.206       .  T
C1477      C1478   1.209       .  T
C1479      C1480   1.204   1_565  T
C1481      C1482   1.213       .  T
C1483      C1484   1.201       .  T
C1485      C1486   1.198       .  T
C1487      C1488   1.197       .  T
C1489      C1490   1.206       .  T
C1491      C1492   1.202       .  T
C1493      C1494   1.203       .  T
C1495      C1496   1.207       .  T
C1497      C1498   1.209       .  T
C1499      C1500   1.211       .  T
C1501      C1502   1.206       .  T
C1503      C1504   1.204       .  T
C1505      C1506   1.209       .  T
C1507      C1508   1.207       .  T
C1509      C1510   1.211       .  T
C1511      C1512   1.212       .  T
C1513      C1514   1.214       .  T
C1515      C1516   1.212       .  T
C1517      C1518   1.207       .  T
C1519      C1520   1.209       .  T
C1521      C1522   1.204       .  T
C1523      C1524   1.203       .  T
C1525      C1526   1.205       .  T
C1527      C1528   1.207       .  T
C1529      C1530   1.212       .  T
C1531      C1532   1.202       .  T
C1533      C1534   1.209       .  T
C1535      C1536   1.206       .  T
C1537      C1538   1.206       .  T
C1539      C1540   1.207       .  T
C1541      C1542   1.208       .  T
C1543      C1544   1.208       .  T
C1545      C1546   1.213       .  T
C1547      C1548   1.205       .  T
C1549      C1550   1.197       .  T
C1551      C1552   1.205       .  T
C1553      C1554   1.207       .  T
C1555      C1556   1.199       .  T
C1557      C1558   1.205       .  T
C1559      C1560   1.204       .  T
C1561      C1562   1.207       .  T
C1563      C1564   1.202       .  T
C1565      C1566   1.200       .  T
C1567      C1568   1.200       .  T
C1569      C1570   1.207       .  T
C1571      C1572   1.209       .  T
C1573      C1574   1.208       .  T
C1575      C1576   1.211       .  T
C1577      C1578   1.203       .  T
C1579      C1580   1.208       .  T
C1581      C1582   1.205       .  T
C1583      C1584   1.203       .  T
C1585      C1586   1.206       .  T
C1587      C1588   1.209       .  T
C1589      C1590   1.201       .  T
C1591      C1592   1.202       .  T
C1593      C1594   1.201       .  T
C1595      C1596   1.213       .  T
C1597      C1598   1.200       .  T
C1599      C1600   1.206       .  T
C1601      C1602   1.200       .  T
C1603      C1604   1.205       .  T
C1605      C1606   1.209       .  T
C1607      C1608   1.206       .  T
C1609      C1610   1.208       .  T
C1611      C1612   1.207       .  T
C1613      C1614   1.202       .  T
C1615      C1616   1.201       .  T
C1617      C1618   1.202       .  T
C1619      C1620   1.201       .  T
C1621      C1622   1.214       .  T
C1623      C1624   1.202       .  T
C1625      C1626   1.202       .  T
C1627      C1628   1.205       .  T
C1629      C1630   1.204       .  T
C1631      C1632   1.202       .  T
C1633      C1634   1.206       .  T
C1635      C1636   1.220       .  T
C1637      C1638   1.195       .  T
C1639      C1640   1.204       .  T
C1641      C1642   1.202       .  T
C1643      C1644   1.193       .  T
C1645      C1646   1.206       .  T
C1647      C1648   1.198       .  T
C1649      C1650   1.207       .  T
C1651      C1652   1.205       .  T
C1653      C1654   1.197       .  T
C1655      C1656   1.206       .  T
C1657      C1658   1.208       .  T
C1659      C1660   1.203       .  T
C1661      C1662   1.211       .  T
C1663      C1664   1.203       .  T
C1665      C1666   1.204       .  T
C1667      C1668   1.203       .  T
C1669      C1670   1.203       .  T
C1671      C1672   1.202       .  T
C1673      C1674   1.206       .  T
C1675      C1676   1.208       .  T
C1677      C1678   1.208       .  T
C1679      C1680   1.204       .  T
C1681      C1682   1.206       .  T
C1683      C1684   1.205       .  T
C1685      C1686   1.202       .  T
C1687      C1688   1.203       .  T
C1689      C1690   1.209       .  T
C1691      C1692   1.206       .  T
C1693      C1694   1.215       .  T
C1695      C1696   1.207       .  T
C1697      C1698   1.202       .  T
C1699      C1700   1.220       .  T
C1701      C1702   1.213       .  T
C1703      C1704   1.214       .  T
C1705      C1706   1.206       .  T
C1707      C1708   1.204       .  T
C1709      C1710   1.204       .  T
C1711      C1712   1.204       .  T
C1713      C1714   1.212       .  T
C1715      C1716   1.207       .  T
C1717      C1718   1.210       .  T
C1719      C1720   1.203       .  T
C1721      C1722   1.208       .  T
C1723      C1724   1.207       .  T
C1725      C1726   1.209       .  T
C1727      C1728   1.209       .  T
C1729      C1730   1.208       .  T
C1731      C1732   1.223       .  T
C1733      C1734   1.218       .  T
C1735      C1736   1.216       .  T
C1737      C1738   1.203       .  T
C1739      C1740   1.205       .  T
C1741      C1742   1.207       .  T
C1743      C1744   1.203       .  T
C1745      C1746   1.210       .  T
C1747      C1748   1.204       .  T
C1749      C1750   1.203       .  T
C1751      C1752   1.203       .  T
C1753      C1754   1.196       .  T
C1755      C1756   1.211       .  T
C1757      C1758   1.212       .  T
C1759      C1760   1.197       .  T
