geometry optimzed in LAMMPS
_audit_creation_date              2020-11-30 
_audit_creation_method            'lammps2cif' 
_symmetry_space_group_name_H-M    'P1' 
_symmetry_Int_Tables_number       1 
_symmetry_cell_setting            triclinic 
loop_ 
_symmetry_equiv_pos_as_xyz 
  x,y,z 
_cell_length_a                    40.85396984 
_cell_length_b                    40.857462589069414 
_cell_length_c                    40.86028096568437 
_cell_angle_alpha                 89.99024618380827 
_cell_angle_beta                  89.99923770214298 
_cell_angle_gamma                 89.99691905975966 
loop_ 
_atom_site_label 
_atom_site_type_symbol 
_atom_site_fract_x 
_atom_site_fract_y 
_atom_site_fract_z 
_atom_site_charge 
O1          O  0.55064246  0.93842172  0.49363576    -0.77900
O2          O  0.45428653  0.94230658  0.51466591    -0.78000
O3          O  0.51394506  0.95354818  0.56080838    -0.78000
O4          O  0.47034145  0.97867901  0.42552760    -0.77900
O5          O  0.46439708  0.96298328  0.57933588    -0.78000
O6          O  0.50632279  0.94080911  0.43994437    -0.77900
O7          O  0.42970128  0.97522841  0.47920996    -0.77900
O8          O  0.57056437  0.97136966  0.53030817    -0.78000
C9          C  0.57425818  0.94674513  0.51172214     1.11800
C10         C  0.42928999  0.94992411  0.49778712     1.11600
C11         C  0.49279389  0.95106198  0.58411841     1.11800
C12         C  0.48403373  0.95132988  0.42067992     1.11700
O13         O  0.53033560  0.00400205  0.42534759    -0.77900
O14         O  0.49027914  0.02114562  0.56227959    -0.78000
O15         O  0.54746904  0.03503825  0.51569530    -0.77900
O16         O  0.45340064  0.03980235  0.49860444    -0.77900
O17         O  0.43282506  0.00528847  0.53321179    -0.78000
O18         O  0.57263047  0.00491091  0.47832426    -0.77900
O19         O  0.49539835  0.04081147  0.44393679    -0.77900
O20         O  0.54031691  0.01098757  0.57918052    -0.78000
Co21       Co  0.53734315  0.97242477  0.46193672     1.51500
Co22       Co  0.47563940  0.97988616  0.53632183     1.51700
Co23       Co  0.52763483  0.99593350  0.53600080     1.51600
Co24       Co  0.46486275  0.00800584  0.46421011     1.51500
O25         O  0.50122492  0.98876720  0.49358035    -1.39900
C26         C  0.51654618  0.03159397  0.42297410     1.11700
C27         C  0.51221451  0.02316053  0.58483502     1.11800
C28         C  0.57242767  0.02938927  0.49809084     1.11700
C29         C  0.42950630  0.03091601  0.51595793     1.11700
O30         O  0.99184796  0.57249819  0.51846937    -0.77900
O31         O  0.99675765  0.42299159  0.46849156    -0.78000
O32         O  0.95593258  0.49668148  0.44416077    -0.78000
O33         O  0.95104531  0.49702080  0.53904125    -0.77900
O34         O  0.99592199  0.46803817  0.42290428    -0.78000
O35         O  0.98799435  0.52644597  0.56420215    -0.77900
O36         O  0.95402785  0.44455629  0.49261193    -0.77900
O37         O  0.95268924  0.55054362  0.48913782    -0.78000
C38         C  0.96289774  0.57342778  0.50781198     1.11800
C39         C  0.96663961  0.42186760  0.47533331     1.11600
C40         C  0.96751175  0.48068408  0.42041588     1.11800
C41         C  0.96007067  0.51236426  0.56432035     1.11700
O42         O  0.05237066  0.50189727  0.54452337    -0.77900
O43         O  0.05735760  0.49531775  0.44769194    -0.78000
O44         O  0.01511226  0.57062359  0.46353769    -0.77900
O45         O  0.01463249  0.42552850  0.52433233    -0.77900
O46         O  0.05648612  0.44645541  0.49802600    -0.78000
O47         O  0.05458410  0.55224892  0.49503258    -0.77900
O48         O  0.01265965  0.47358676  0.56676530    -0.77900
O49         O  0.01916477  0.52147151  0.42094471    -0.78000
Co50       Co  0.02147410  0.53454687  0.52725590     1.51500
Co51       Co  0.02606128  0.46192389  0.46255303     1.51700
Co52       Co  0.98610753  0.53146173  0.45791577     1.51600
Co53       Co  0.98360315  0.46361274  0.52718447     1.51500
O54         O  0.00446124  0.49804425  0.49374650    -1.39900
C55         C  0.04058332  0.48726096  0.56909481     1.11700
C56         C  0.04748237  0.50819767  0.42138079     1.11800
C57         C  0.04374567  0.57355434  0.47485453     1.11700
C58         C  0.04465461  0.42454591  0.51681306     1.11700
O59         O  0.45300132  0.50537237  0.05748383    -0.77900
O60         O  0.55262054  0.48844398  0.05336652    -0.78000
O61         O  0.49430233  0.44245003  0.04025479    -0.78000
O62         O  0.53148200  0.57823283  0.02376000    -0.77900
O63         O  0.54418925  0.42516429  0.02936598    -0.78000
O64         O  0.49625900  0.55800825  0.05950363    -0.77900
O65         O  0.57597284  0.52719524  0.02370928    -0.77900
O66         O  0.43504092  0.46978700  0.02281773    -0.78000
C67         C  0.42966884  0.48781730  0.04752066     1.11800
C68         C  0.57721068  0.50647126  0.04721828     1.11600
C69         C  0.51613711  0.41973612  0.04190113     1.11800
C70         C  0.51770647  0.57895639  0.05149270     1.11700
O71         O  0.47308517  0.57814567  0.99659219    -0.77900
O72         O  0.51777424  0.44424267  0.97194831    -0.78000
O73         O  0.45770650  0.48835615  0.96068318    -0.77900
O74         O  0.55556439  0.51187284  0.95742155    -0.77900
O75         O  0.57548101  0.47471634  0.98967155    -0.78000
O76         O  0.43203727  0.52425008  0.99209573    -0.77900
O77         O  0.50914927  0.56259269  0.95942911    -0.77900
O78         O  0.46866750  0.42454805  0.98206682    -0.78000
Co79       Co  0.46653769  0.53917857  0.02572483     1.51500
Co80       Co  0.53206514  0.46848109  0.01426604     1.51700
Co81       Co  0.47897571  0.46752736  0.99887551     1.51600
Co82       Co  0.54022285  0.54247284  0.99161263     1.51500
O83         O  0.50430690  0.51025896  0.00766979    -1.39900
C84         C  0.48652398  0.58174899  0.96888877     1.11700
C85         C  0.49692067  0.42065762  0.96958148     1.11800
C86         C  0.43217425  0.50479705  0.96746512     1.11700
C87         C  0.57963749  0.49443012  0.96589553     1.11700
C88         C  0.57854792  0.92656427  0.78602059     0.05300
C89         C  0.56037383  0.93228953  0.75708201    -0.10800
C90         C  0.56588293  0.91352854  0.72849147     0.02800
C91         C  0.59001772  0.88880984  0.72911596    -0.09300
C92         C  0.60852621  0.88258748  0.75762132     0.05300
C93         C  0.60250901  0.90154675  0.78596519    -0.08800
H94         H  0.54199612  0.95140860  0.75678406     0.10900
H95         H  0.59452597  0.87444214  0.70726282     0.08500
H96         H  0.61664089  0.89695727  0.80794913     0.08300
C97         C  0.77808860  0.74620275  0.72994822     0.82400
N98         N  0.75324567  0.76859064  0.73052101    -0.75900
C99         C  0.72928950  0.76691734  0.75380026     0.84900
N100        N  0.73039751  0.74252925  0.77664647    -0.75800
C101        C  0.75506730  0.71996289  0.77638997     0.85000
N102        N  0.77882202  0.72198580  0.75297174    -0.81700
C103        C  0.93982170  0.77910142  0.58081961     0.05300
C104        C  0.94468894  0.74972239  0.56278664    -0.10800
C105        C  0.92606944  0.72114251  0.56970978     0.02800
C106        C  0.90254158  0.72234419  0.59488261    -0.09300
C107        C  0.89720033  0.75111894  0.61306838     0.05300
C108        C  0.91596170  0.77929114  0.60591737    -0.08800
H109        H  0.96283841  0.74911000  0.54346640     0.10900
H110        H  0.88819650  0.70067901  0.60034455     0.08500
H111        H  0.91186550  0.80149378  0.61984581     0.08300
C112        C  0.78735235  0.56952754  0.93567808     0.05300
C113        C  0.78697087  0.59324324  0.91051092    -0.10800
C114        C  0.75796480  0.60040956  0.89314131     0.02800
C115        C  0.72896481  0.58333047  0.90110866    -0.09300
C116        C  0.72850521  0.55941387  0.92612137     0.05300
C117        C  0.75793722  0.55273739  0.94327207    -0.08800
H118        H  0.80929083  0.60626807  0.90452735     0.10900
H119        H  0.70661937  0.58877999  0.88789291     0.08500
H120        H  0.75793834  0.53451279  0.96257424     0.08300
C121        C  0.28857957  0.22606771  0.75032590     0.82400
N122        N  0.28883472  0.24995578  0.77361633    -0.75900
C123        C  0.26491392  0.27322198  0.77433714     0.84900
N124        N  0.24049241  0.27236589  0.75153340    -0.75800
C125        C  0.23999539  0.24855191  0.72809512     0.85000
N126        N  0.26408878  0.22547704  0.72768624    -0.77500
C127        C  0.28887818  0.43091560  0.92800874     0.05300
C128        C  0.29056410  0.40678690  0.90334504    -0.10800
C129        C  0.26303193  0.38759530  0.89528149     0.02800
C130        C  0.23345509  0.39256089  0.91228176    -0.09300
C131        C  0.23086677  0.41643889  0.93703939     0.05300
C132        C  0.25882037  0.43555913  0.94482796    -0.08800
H133        H  0.31332197  0.40307658  0.89022865     0.10900
H134        H  0.21221593  0.37794099  0.90598666     0.08500
H135        H  0.25712380  0.45410021  0.96370546     0.08300
C136        C  0.42636334  0.05881582  0.78488136     0.05300
C137        C  0.40426146  0.08524710  0.78317040    -0.10800
C138        C  0.39981847  0.10273159  0.75378752     0.02800
C139        C  0.41783802  0.09360761  0.72583569    -0.09300
C140        C  0.44021797  0.06736776  0.72698919     0.05300
C141        C  0.44428097  0.05002282  0.75663322    -0.08800
H142        H  0.39050914  0.09224287  0.80476498     0.10900
H143        H  0.41452782  0.10701701  0.70319186     0.08500
H144        H  0.46144721  0.02981828  0.75776105     0.08300
C145        C  0.07410587  0.21748828  0.58302528     0.05300
C146        C  0.06780299  0.24802579  0.56768263    -0.10800
C147        C  0.08631737  0.27624815  0.57582129     0.02800
C148        C  0.11118285  0.27364876  0.59947220    -0.09300
C149        C  0.11793395  0.24370336  0.61503765     0.05300
C150        C  0.09935455  0.21573845  0.60667422    -0.08800
H151        H  0.04855693  0.24982762  0.54955058     0.10900
H152        H  0.12536152  0.29514242  0.60589360     0.08500
H153        H  0.10449621  0.19261767  0.61864299     0.08300
O154        O  0.55384239  0.99028055  0.95328478    -0.77900
O155        O  0.54981333  0.00929079  0.04957362    -0.78000
O156        O  0.53972921  0.05630058  0.99020529    -0.78000
O157        O  0.51388060  0.92180023  0.03210843    -0.77900
O158        O  0.52998152  0.07389216  0.04025908    -0.78000
O159        O  0.55230326  0.93876098  0.99795084    -0.77900
O160        O  0.51653324  0.97420285  0.07405689    -0.77900
O161        O  0.52137720  0.02600916  0.93198689    -0.78000
C162        C  0.54532124  0.00644418  0.92850366     1.11800
C163        C  0.54215905  0.99235296  0.07449256     1.11600
C164        C  0.54285226  0.07870640  0.01229681     1.11800
C165        C  0.54223307  0.91919790  0.01989312     1.11700
O166        O  0.48934537  0.92114274  0.97350999    -0.77900
O167        O  0.47176608  0.05813626  0.01345310    -0.78000
O168        O  0.45803554  0.01215865  0.95570283    -0.77900
O169        O  0.45189495  0.99383528  0.05057444    -0.77900
O170        O  0.48672403  0.02820714  0.07113538    -0.78000
O171        O  0.48772475  0.97369360  0.93148974    -0.77900
O172        O  0.45144581  0.94053873  0.00675752    -0.77900
O173        O  0.48250052  0.07546459  0.96356182    -0.78000
Co174      Co  0.52042028  0.95832121  0.96659185     1.51500
Co175      Co  0.51249524  0.03158291  0.02836454     1.51700
Co176      Co  0.49724070  0.03207881  0.97566225     1.51600
Co177      Co  0.48397875  0.95991579  0.03824735     1.51500
O178        O  0.50328710  0.98964432  0.00226626    -1.39900
C179        C  0.46077407  0.91987208  0.98536975     1.11700
C180        C  0.46993959  0.08078957  0.99157998     1.11800
C181        C  0.46362292  0.99382475  0.93124568     1.11700
C182        C  0.46092028  0.01113381  0.07448384     1.11700
C183        C  0.26240478  0.74107553  0.75942722     0.82400
N184        N  0.26224629  0.76438859  0.73564125    -0.75900
C185        C  0.23833650  0.76476819  0.71244962     0.84900
N186        N  0.21433508  0.74159894  0.71316826    -0.75800
C187        C  0.21427011  0.71812286  0.73689745     0.85000
N188        N  0.23834327  0.71799637  0.75999231    -0.77500
C189        C  0.42074321  0.72097599  0.91052262     0.05300
C190        C  0.39698871  0.71982266  0.88561106    -0.10800
C191        C  0.37927506  0.74801947  0.87681960     0.02800
C192        C  0.38552912  0.77772280  0.89317055    -0.09300
C193        C  0.40921611  0.77943564  0.91818290     0.05300
C194        C  0.42677451  0.75090310  0.92670192    -0.08800
H195        H  0.39212062  0.69688622  0.87318741     0.10900
H196        H  0.37189273  0.79949430  0.88648380     0.08500
H197        H  0.44497532  0.75195476  0.94597371     0.08300
C198        C  0.22549989  0.93735224  0.57640680     0.05300
C199        C  0.22228685  0.91091089  0.59827124    -0.10800
C200        C  0.24817071  0.88872226  0.60304978     0.02800
C201        C  0.27764961  0.89311140  0.58577372    -0.09300
C202        C  0.28153960  0.91939618  0.56380172     0.05300
C203        C  0.25529679  0.94153299  0.55927831    -0.08800
H204        H  0.19948636  0.90744388  0.61140037     0.10900
H205        H  0.29759645  0.87598861  0.58938887     0.08500
H206        H  0.25795124  0.96175849  0.54228872     0.08300
C207        C  0.05294830  0.57166715  0.77062364     0.05300
C208        C  0.07647731  0.59686583  0.76996019    -0.10800
C209        C  0.09599879  0.60197932  0.74203420     0.02800
C210        C  0.09176553  0.58172214  0.71454808    -0.09300
C211        C  0.06835481  0.55648380  0.71465122     0.05300
C212        C  0.04894974  0.55155604  0.74280537    -0.08800
H213        H  0.07982886  0.61228448  0.79130054     0.10900
H214        H  0.10679406  0.58557605  0.69301594     0.08500
H215        H  0.03097426  0.53204935  0.74314471     0.08300
C216        C  0.75614554  0.26918660  0.21382194     0.82400
N217        N  0.73241820  0.24571486  0.21495932    -0.75900
C218        C  0.73397101  0.22117022  0.23754513     0.84900
N219        N  0.75944031  0.22020837  0.25903568    -0.75800
C220        C  0.78328188  0.24348835  0.25814314     0.85000
N221        N  0.78151842  0.26793587  0.23548663    -0.77500
C222        C  0.93200040  0.27340268  0.41378278     0.05300
C223        C  0.90902339  0.27063818  0.38831802    -0.10800
C224        C  0.90409219  0.24077010  0.37198004     0.02800
C225        C  0.92265318  0.21311673  0.38124860    -0.09300
C226        C  0.94599926  0.21508275  0.40672558     0.05300
C227        C  0.95048196  0.24548124  0.42288140    -0.08800
H228        H  0.89475913  0.29187325  0.38124783     0.10900
H229        H  0.91881063  0.19003556  0.36875638     0.08500
H230        H  0.96821678  0.24737647  0.44251563     0.08300
C231        C  0.78220251  0.42391657  0.05963134     0.05300
C232        C  0.78159384  0.39836402  0.08282864    -0.10800
C233        C  0.75360344  0.39233753  0.10202941     0.02800
C234        C  0.72572472  0.41220605  0.09798231    -0.09300
C235        C  0.72535474  0.43796577  0.07501885     0.05300
C236        C  0.75383629  0.44373053  0.05587364    -0.08800
H237        H  0.80303853  0.38304208  0.08593640     0.10900
H238        H  0.70415599  0.40749653  0.11267354     0.08500
H239        H  0.75388064  0.46340195  0.03808303     0.08300
C240        C  0.58589525  0.05934134  0.21880035     0.05300
C241        C  0.61050411  0.08349205  0.21756000    -0.10800
C242        C  0.61786876  0.10272295  0.24519025     0.02800
C243        C  0.60048844  0.09760441  0.27446399    -0.09300
C244        C  0.57582232  0.07362173  0.27643463     0.05300
C245        C  0.56859196  0.05454248  0.24843519    -0.08800
H246        H  0.62383262  0.08745581  0.19497114     0.10900
H247        H  0.60617206  0.11232858  0.29578255     0.08500
H248        H  0.54960162  0.03603962  0.24970700     0.08300
O249        O  0.95836825  0.53449686  0.98475545    -0.77900
O250        O  0.05386210  0.53961097  0.99778968    -0.78000
O251        O  0.97958078  0.50204375  0.07239772    -0.78000
O252        O  0.01308064  0.52441617  0.93556325    -0.77900
O253        O  0.01315902  0.53927638  0.05236764    -0.78000
O254        O  0.96235073  0.51329642  0.92076782    -0.77900
O255        O  0.07386518  0.50740913  0.96128167    -0.77900
O256        O  0.93462191  0.50340020  0.02192133    -0.78000
C257        C  0.93369592  0.52788976  0.00234482     1.11800
C258        C  0.07800795  0.53138014  0.98058149     1.11600
C259        C  0.99285618  0.52989410  0.07393950     1.11800
C260        C  0.98951611  0.52716489  0.91463791     1.11700
O261        O  0.99141022  0.45597223  0.93421032    -0.77900
O262        O  0.03903696  0.47683977  0.06983117    -0.78000
O263        O  0.95515764  0.43769225  0.00457161    -0.77900
O264        O  0.05429209  0.44394185  0.97681611    -0.77900
O265        O  0.07827014  0.47458803  0.01480153    -0.78000
O266        O  0.93486063  0.47124755  0.96870762    -0.77900
O267        O  0.03978148  0.46818936  0.91409210    -0.77900
O268        O  0.00268022  0.43908700  0.05609349    -0.78000
Co269      Co  0.97762755  0.49640057  0.96203170     1.51500
Co270      Co  0.04331953  0.50688304  0.03141523     1.51700
Co271      Co  0.97082684  0.47103256  0.03592146     1.51600
Co272      Co  0.03056298  0.48222785  0.95852990     1.51500
O273        O  0.00614360  0.48772907  0.00283509    -1.39900
C274        C  0.01142857  0.45599282  0.90971270     1.11700
C275        C  0.02534385  0.44951444  0.07496994     1.11800
C276        C  0.93080228  0.44712070  0.98794533     1.11700
C277        C  0.07908447  0.45057992  0.99457494     1.11700
C278        C  0.22961594  0.05813749  0.43089169     0.05300
C279        C  0.23080983  0.08210572  0.40603847    -0.10800
C280        C  0.25948220  0.10057033  0.40056684     0.02800
C281        C  0.28719224  0.09478470  0.42031832    -0.09300
C282        C  0.28650855  0.07095605  0.44528795     0.05300
C283        C  0.25759862  0.05277331  0.45041991    -0.08800
H284        H  0.20939724  0.08641183  0.39096801     0.10900
H285        H  0.30934720  0.10879535  0.41620169     0.08500
H286        H  0.25690806  0.03438801  0.46954409     0.08300
C287        C  0.26515314  0.21924694  0.28368757     0.82400
N288        N  0.24288169  0.24409578  0.28509793    -0.75900
C289        C  0.24333933  0.26862816  0.26246064     0.84900
N290        N  0.26627062  0.26817003  0.23825457    -0.75800
C291        C  0.28868360  0.24353193  0.23649208     0.85000
N292        N  0.28801367  0.21907613  0.25928184    -0.77500
C293        C  0.08751999  0.41664945  0.22399332     0.05300
C294        C  0.07931925  0.43669819  0.25111234    -0.10800
C295        C  0.09551632  0.43294695  0.28158084     0.02800
C296        C  0.12008390  0.40882309  0.28452363    -0.09300
C297        C  0.12852666  0.38869334  0.25776889     0.05300
C298        C  0.11215778  0.39283612  0.22773515    -0.08800
H299        H  0.06039258  0.45507356  0.24852765     0.10900
H300        H  0.13258593  0.40562880  0.30769183     0.08500
H301        H  0.11861686  0.37737223  0.20712886     0.08300
C302        C  0.42792136  0.22118339  0.06675627     0.05300
C303        C  0.40463724  0.22052934  0.09224343    -0.10800
C304        C  0.39907718  0.24837145  0.11186889     0.02800
C305        C  0.41712521  0.27717723  0.10569589    -0.09300
C306        C  0.44064300  0.27824986  0.08040322     0.05300
C307        C  0.44577585  0.25015760  0.06103853    -0.08800
H308        H  0.39099349  0.19825771  0.09694084     0.10900
H309        H  0.41308526  0.29863567  0.12072976     0.08500
H310        H  0.46388245  0.25076523  0.04161523     0.08300
C311        C  0.76887368  0.28520138  0.74701409     0.82400
N312        N  0.74768407  0.28363980  0.77281380    -0.75900
C313        C  0.72463410  0.25949615  0.77444066     0.84900
N314        N  0.72289266  0.23683083  0.75001364    -0.75800
C315        C  0.74388674  0.23808097  0.72410745     0.85000
N316        N  0.76683363  0.26232181  0.72275518    -0.77500
C317        C  0.91734333  0.44548208  0.70921427     0.05300
C318        C  0.89180548  0.42219359  0.71052805    -0.10800
C319        C  0.88633851  0.40334828  0.73897659     0.02800
C320        C  0.90669945  0.40809445  0.76642741    -0.09300
C321        C  0.93235627  0.43118065  0.76586168     0.05300
C322        C  0.93749012  0.44981043  0.73709523    -0.08800
H323        H  0.87633237  0.41853952  0.68927714     0.10900
H324        H  0.90264186  0.39364735  0.78829967     0.08500
H325        H  0.95723395  0.46752448  0.73633931     0.08300
C326        C  0.57283810  0.27932775  0.93164487     0.05300
C327        C  0.59662919  0.27962498  0.90671246    -0.10800
C328        C  0.61552677  0.25161569  0.89991368     0.02800
C329        C  0.61043975  0.22294969  0.91851577    -0.09300
C330        C  0.58674484  0.22211958  0.94365807     0.05300
C331        C  0.56808918  0.25049823  0.95009216    -0.08800
H332        H  0.60033193  0.30168786  0.89242335     0.10900
H333        H  0.62474521  0.20123239  0.91326781     0.08500
H334        H  0.54973022  0.25006696  0.96922630     0.08300
C335        C  0.71367739  0.08542598  0.56508067     0.05300
C336        C  0.74411625  0.06961789  0.55984064    -0.10800
C337        C  0.77234019  0.07888984  0.57772975     0.02800
C338        C  0.76979586  0.10425096  0.60091308    -0.09300
C339        C  0.73984863  0.12032940  0.60656277     0.05300
C340        C  0.71190840  0.11078856  0.58855872    -0.08800
H341        H  0.74581547  0.05010791  0.54196591     0.10900
H342        H  0.79128051  0.11150168  0.61470708     0.08500
H343        H  0.68877782  0.12302685  0.59289105     0.08300
C344        C  0.73891906  0.73901006  0.24002501     0.82400
N345        N  0.76191229  0.71498876  0.24040480    -0.75900
C346        C  0.78365604  0.71312645  0.26553543     0.84900
N347        N  0.78226944  0.73536026  0.29031652    -0.75800
C348        C  0.75918047  0.75936277  0.28989179     0.85000
N349        N  0.73761453  0.76107636  0.26474675    -0.77500
C350        C  0.72053019  0.90933804  0.44630806     0.05300
C351        C  0.72001814  0.88374241  0.42325030    -0.10800
C352        C  0.74768446  0.87706521  0.40394312     0.02800
C353        C  0.77597057  0.89605757  0.40751476    -0.09300
C354        C  0.77710527  0.92167916  0.43024910     0.05300
C355        C  0.74931798  0.92828679  0.44979441    -0.08800
H356        H  0.69810502  0.86906339  0.42030842     0.10900
H357        H  0.79726030  0.89080753  0.39255679     0.08500
H358        H  0.75003879  0.94805960  0.46744644     0.08300
C359        C  0.93823600  0.56728199  0.22180961     0.05300
C360        C  0.91469144  0.59191156  0.22620326    -0.10800
C361        C  0.89827970  0.59525065  0.25616844     0.02800
C362        C  0.90550510  0.57382499  0.28202483    -0.09300
C363        C  0.92895802  0.54897332  0.27814085     0.05300
C364        C  0.94535774  0.54575116  0.24789505    -0.08800
H365        H  0.90897556  0.60839859  0.20619161     0.10900
H366        H  0.89280819  0.57646036  0.30518607     0.08500
H367        H  0.96343746  0.52662114  0.24465954     0.08300
C368        C  0.58645621  0.77894819  0.08848218     0.05300
C369        C  0.61177578  0.77878158  0.11164666    -0.10800
C370        C  0.61899548  0.75022516  0.12917258     0.02800
C371        C  0.60063576  0.72179951  0.12390112    -0.09300
C372        C  0.57516204  0.72157925  0.10098244     0.05300
C373        C  0.56803160  0.75025120  0.08316113    -0.08800
H374        H  0.62616159  0.80073365  0.11570356     0.10900
H375        H  0.60652253  0.69965144  0.13732451     0.08500
H376        H  0.54861334  0.75013128  0.06510353     0.08300
C377        C  0.21872853  0.75176073  0.25370635     0.82400
N378        N  0.22001096  0.72601638  0.23243230    -0.75900
C379        C  0.24394374  0.72433672  0.20913813     0.84900
N380        N  0.26674979  0.74874691  0.20732692    -0.75800
C381        C  0.26567839  0.77460353  0.22850370     0.85000
N382        N  0.24163675  0.77588989  0.25157555    -0.77500
C383        C  0.42022040  0.92190730  0.27237171     0.05300
C384        C  0.39544042  0.89841374  0.26753113    -0.10800
C385        C  0.37931648  0.89555756  0.23719047     0.02800
C386        C  0.38807632  0.91674440  0.21139432    -0.09300
C387        C  0.41279863  0.94051023  0.21552987     0.05300
C388        C  0.42874339  0.94296168  0.24620043    -0.08800
H389        H  0.38884451  0.88210093  0.28738976     0.10900
H390        H  0.37588213  0.91449152  0.18793477     0.08500
H391        H  0.44789088  0.96099611  0.24960429     0.08300
C392        C  0.07650114  0.72445782  0.41673754     0.05300
C393        C  0.09899797  0.72698842  0.39076926    -0.10800
C394        C  0.10389827  0.75676509  0.37415842     0.02800
C395        C  0.08584352  0.78465051  0.38377516    -0.09300
C396        C  0.06304715  0.78310102  0.40979413     0.05300
C397        C  0.05851337  0.75270131  0.42612779    -0.08800
H398        H  0.11286754  0.70559637  0.38343726     0.10900
H399        H  0.08967279  0.80765445  0.37109530     0.08500
H400        H  0.04118731  0.75107721  0.44612391     0.08300
C401        C  0.27877585  0.55274075  0.07381149     0.05300
C402        C  0.27699339  0.57814112  0.09719978    -0.10800
C403        C  0.24818082  0.59679069  0.10123238     0.02800
C404        C  0.22067052  0.58963839  0.08156258    -0.09300
C405        C  0.22161266  0.56437827  0.05795414     0.05300
C406        C  0.25085642  0.54602716  0.05430640    -0.08800
H407        H  0.29823303  0.58362772  0.11211059     0.10900
H408        H  0.19851327  0.60393115  0.08448288     0.08500
H409        H  0.25195301  0.52669534  0.03617301     0.08300
O410        O  0.99336392  0.95114459  0.55364123    -0.77900
O411        O  0.01657627  0.04942120  0.54576298    -0.78000
O412        O  0.06094529  0.98992508  0.53772019    -0.78000
O413        O  0.92636853  0.03256742  0.51284323    -0.77900
O414        O  0.07977025  0.03857034  0.52393448    -0.78000
O415        O  0.94053724  0.99623952  0.55051667    -0.77900
O416        O  0.98064952  0.07385559  0.51362330    -0.77900
O417        O  0.03028111  0.93050428  0.52184040    -0.78000
C418        C  0.01046265  0.92673472  0.54556447     1.11800
C419        C  0.00032063  0.07474178  0.53814548     1.11600
C420        C  0.08414409  0.01144655  0.53859556     1.11800
C421        C  0.92135973  0.01862719  0.54005787     1.11700
O422        O  0.92565727  0.97134323  0.48810901    -0.77900
O423        O  0.06217221  0.00919489  0.46773958    -0.78000
O424        O  0.01669187  0.95175583  0.45758776    -0.77900
O425        O  0.99734975  0.04782662  0.44885412    -0.77900
O426        O  0.03331289  0.06891597  0.48129764    -0.78000
O427        O  0.97813470  0.92829684  0.48752553    -0.77900
O428        O  0.94332680  0.00616008  0.45074490    -0.77900
O429        O  0.07963041  0.96031754  0.48197196    -0.78000
Co430      Co  0.96216040  0.96459175  0.51932289     1.51500
Co431      Co  0.03684845  0.02658867  0.50827254     1.51700
Co432      Co  0.03633450  0.97338287  0.49622986     1.51600
Co433      Co  0.96436193  0.03725972  0.48238169     1.51500
O434        O  0.99386237  0.00052993  0.50171827    -1.39900
C435        C  0.92284548  0.98488863  0.46053105     1.11700
C436        C  0.08511076  0.98748492  0.46775925     1.11800
C437        C  0.99854616  0.92725702  0.46358944     1.11700
C438        C  0.01491586  0.07196084  0.45638086     1.11700
C439        C  0.04503701  0.81293296  0.41981456    -0.16300
C440        C  0.03131155  0.83854646  0.42776529     0.07800
C441        C  0.01655904  0.86933389  0.43767933     0.09600
C442        C  0.00607967  0.89575219  0.44763977    -0.17100
C443        C  0.24507876  0.69662106  0.18633678    -0.16300
C444        C  0.24576801  0.67351585  0.16726839     0.07800
C445        C  0.24645496  0.64646143  0.14460731     0.09600
C446        C  0.24710797  0.62372921  0.12509243    -0.17100
C447        C  0.19326074  0.75353577  0.27878387    -0.16300
C448        C  0.17240935  0.75549080  0.30011935     0.07800
C449        C  0.14815545  0.75751444  0.32553203     0.09600
C450        C  0.12779222  0.75822655  0.34741642    -0.17100
C451        C  0.29022436  0.80057976  0.22709231    -0.16300
C452        C  0.31033347  0.82267427  0.22761165     0.07800
C453        C  0.33395627  0.84862178  0.22970156     0.09600
C454        C  0.35431364  0.87030332  0.23253040    -0.17100
C455        C  0.80728352  0.94045704  0.43301270    -0.16300
C456        C  0.83395555  0.95364949  0.43371841     0.07800
C457        C  0.86612930  0.96715792  0.43587472     0.09600
C458        C  0.89343881  0.97692952  0.44245914    -0.17100
C459        C  0.71541744  0.74100229  0.21395592    -0.16300
C460        C  0.69430960  0.74384371  0.19351896     0.07800
C461        C  0.66848417  0.74737139  0.17081405     0.09600
C462        C  0.64595952  0.74951376  0.15186143    -0.17100
C463        C  0.80826490  0.68775148  0.26564165    -0.16300
C464        C  0.82887628  0.66647885  0.26474383     0.07800
C465        C  0.85308983  0.64162606  0.26269640     0.09600
C466        C  0.87371808  0.62050008  0.26015915    -0.17100
C467        C  0.75717837  0.78309631  0.31589844    -0.16300
C468        C  0.75398413  0.80392149  0.33667708     0.07800
C469        C  0.74995759  0.82892184  0.36040212     0.09600
C470        C  0.74765277  0.85061743  0.38040798    -0.17100
C471        C  0.80414422  0.06277855  0.57266784    -0.16300
C472        C  0.83139012  0.05073211  0.56929134     0.07800
C473        C  0.86382130  0.03763005  0.56439423     0.09600
C474        C  0.89110392  0.02765598  0.55700166    -0.17100
C475        C  0.74185058  0.21353272  0.69816447    -0.16300
C476        C  0.74012287  0.19270421  0.67680009     0.07800
C477        C  0.73855238  0.16786939  0.65194250     0.09600
C478        C  0.73819301  0.14646015  0.63108644    -0.17100
C479        C  0.70191093  0.25784531  0.80201002    -0.16300
C480        C  0.68258903  0.25604459  0.82472960     0.07800
C481        C  0.65957882  0.25387631  0.85121494     0.09600
C482        C  0.63976372  0.25239609  0.87352433    -0.17100
C483        C  0.86022520  0.37869755  0.74005247    -0.16300
C484        C  0.83895581  0.35770373  0.74157850     0.07800
C485        C  0.81429717  0.33263039  0.74364183     0.09600
C486        C  0.79354836  0.31113401  0.74531853    -0.17100
C487        C  0.37529513  0.24714857  0.13869717    -0.16300
C488        C  0.35568201  0.24584081  0.16121373     0.07800
C489        C  0.33267139  0.24431000  0.18776834     0.09600
C490        C  0.31292494  0.24343199  0.21018606    -0.17100
C491        C  0.15383976  0.36355117  0.26098323    -0.16300
C492        C  0.17463821  0.34218913  0.26262799     0.07800
C493        C  0.19879307  0.31671684  0.26360708     0.09600
C494        C  0.21912939  0.29486038  0.26362370    -0.17100
C495        C  0.19962191  0.03923159  0.43643093    -0.16300
C496        C  0.17426983  0.02411121  0.44118924     0.07800
C497        C  0.14382287  0.00766105  0.44752856     0.09600
C498        C  0.11725974  0.99599289  0.45470923    -0.17100
C499        C  0.26053422  0.12550279  0.37477645    -0.16300
C500        C  0.26169754  0.14650563  0.35352281     0.07800
C501        C  0.26319193  0.17151349  0.32880303     0.09600
C502        C  0.26433059  0.19304438  0.30807955    -0.17100
C503        C  0.99991460  0.44572464  0.87727722    -0.16300
C504        C  0.98680328  0.44121442  0.85067973     0.07800
C505        C  0.96925293  0.43793496  0.82017221     0.09600
C506        C  0.95316908  0.43534648  0.79498542    -0.17100
C507        C  0.98600399  0.54889131  0.10301664    -0.16300
C508        C  0.97756404  0.55723955  0.13026218     0.07800
C509        C  0.96572697  0.56178736  0.16280136     0.09600
C510        C  0.95421001  0.56405098  0.19012983    -0.17100
C511        C  0.07107188  0.42018134  0.19214180    -0.16300
C512        C  0.05867770  0.42234715  0.16492314     0.07800
C513        C  0.04510681  0.42603870  0.13251952     0.09600
C514        C  0.03472425  0.43275286  0.10521356    -0.17100
C515        C  0.11106767  0.54165278  0.99048706    -0.16300
C516        C  0.13753446  0.54749191  0.00346741     0.07800
C517        C  0.16764421  0.55307381  0.02131750     0.09600
C518        C  0.19253683  0.55777552  0.03750473    -0.17100
C519        C  0.81220115  0.42911804  0.04011362    -0.16300
C520        C  0.83834896  0.43156911  0.02545284     0.07800
C521        C  0.86999077  0.43410271  0.00961618     0.09600
C522        C  0.89743676  0.43777098  0.99788381    -0.17100
C523        C  0.96481805  0.18575923  0.41635635    -0.16300
C524        C  0.97957167  0.16073283  0.42409044     0.07800
C525        C  0.99566889  0.13060293  0.43356452     0.09600
C526        C  0.00708525  0.10434114  0.44269621    -0.17100
C527        C  0.70875478  0.19599615  0.23873503    -0.16300
C528        C  0.68803493  0.17461012  0.24016374     0.07800
C529        C  0.66379595  0.14936787  0.24196813     0.09600
C530        C  0.64305143  0.12801501  0.24344105    -0.17100
C531        C  0.75456547  0.29535418  0.18955301    -0.16300
C532        C  0.75381482  0.31736981  0.16939953     0.07800
C533        C  0.75345998  0.34340596  0.14583530     0.09600
C534        C  0.75344622  0.36562746  0.12589526    -0.17100
C535        C  0.81035090  0.24218514  0.28135199    -0.16300
C536        C  0.83255776  0.24075138  0.30122444     0.07800
C537        C  0.85818255  0.23926392  0.32515067     0.09600
C538        C  0.87946306  0.23890916  0.34606930    -0.17100
C539        C  0.99563206  0.54338541  0.88356949    -0.16300
C540        C  0.00520159  0.55267484  0.85692204     0.07800
C541        C  0.01969071  0.56051835  0.82599272     0.09600
C542        C  0.03391874  0.56585071  0.80033578    -0.17100
C543        C  0.19754643  0.95913555  0.57102689    -0.16300
C544        C  0.17268071  0.97512699  0.56672150     0.07800
C545        C  0.14220503  0.99151002  0.56058759     0.09600
C546        C  0.11565024  0.00284561  0.55297031    -0.17100
C547        C  0.18845904  0.69360455  0.73789279    -0.16300
C548        C  0.16695964  0.67302040  0.73907656     0.07800
C549        C  0.14186673  0.64866111  0.74055603     0.09600
C550        C  0.12077529  0.62765768  0.74156196    -0.17100
C551        C  0.24446605  0.86133968  0.62563949    -0.16300
C552        C  0.24181475  0.83860262  0.64468590     0.07800
C553        C  0.23947194  0.81218598  0.66751106     0.09600
C554        C  0.23834116  0.79017705  0.68753474    -0.17100
C555        C  0.28772652  0.74139315  0.78442335    -0.16300
C556        C  0.30886985  0.74255127  0.80535653     0.07800
C557        C  0.33356141  0.74450587  0.83007528     0.09600
C558        C  0.35442475  0.74626968  0.85125512    -0.17100
C559        C  0.56124337  0.89123022  0.02997608    -0.16300
C560        C  0.57033286  0.86531331  0.04111946     0.07800
C561        C  0.57622974  0.83445753  0.05605905     0.09600
C562        C  0.58022094  0.80862185  0.07006250    -0.17100
C563        C  0.44044286  0.89246278  0.97502244    -0.16300
C564        C  0.42964703  0.86710247  0.96353226     0.07800
C565        C  0.42112763  0.83652735  0.94845065     0.09600
C566        C  0.41546087  0.81047989  0.93496759    -0.17100
C567        C  0.57846200  0.04015214  0.18931697    -0.16300
C568        C  0.57294934  0.02570274  0.16367304     0.07800
C569        C  0.56584422  0.01045402  0.13267952     0.09600
C570        C  0.55757126  0.99980153  0.10594890    -0.17100
C571        C  0.42223029  0.96142258  0.18780318    -0.16300
C572        C  0.42966773  0.97715520  0.16341555     0.07800
C573        C  0.43868199  0.99346743  0.13346323     0.09600
C574        C  0.44747159  0.00439705  0.10700362    -0.17100
C575        C  0.45573865  0.11224258  0.00064297    -0.16300
C576        C  0.44731675  0.13796076  0.01327390     0.07800
C577        C  0.43961091  0.16736107  0.03092001     0.09600
C578        C  0.43397921  0.19194422  0.04693428    -0.17100
C579        C  0.55844950  0.10969640  0.00369114    -0.16300
C580        C  0.56747427  0.13588991  0.99244896     0.07800
C581        C  0.57540955  0.16636909  0.97672941     0.09600
C582        C  0.58095405  0.19190568  0.96217598    -0.17100
C583        C  0.05486212  0.18794043  0.57474123    -0.16300
C584        C  0.03958109  0.16281265  0.56829855     0.07800
C585        C  0.02258949  0.13263602  0.56038604     0.09600
C586        C  0.01007581  0.10650855  0.55220647    -0.17100
C587        C  0.43079330  0.04115844  0.81579515    -0.16300
C588        C  0.43456412  0.02734956  0.84203913     0.07800
C589        C  0.44029243  0.01232488  0.87331825     0.09600
C590        C  0.44800883  0.00157192  0.90010385    -0.17100
C591        C  0.19909250  0.42140241  0.95344245    -0.16300
C592        C  0.17167878  0.42471928  0.96526155     0.07800
C593        C  0.13886156  0.42939542  0.97770732     0.09600
C594        C  0.11102730  0.43598801  0.98685271    -0.17100
C595        C  0.14392669  0.24230381  0.63971128    -0.16300
C596        C  0.16580208  0.24321254  0.66005669     0.07800
C597        C  0.19159783  0.24535707  0.68386058     0.09600
C598        C  0.21356074  0.24718762  0.70404251    -0.17100
C599        C  0.37676044  0.13005447  0.75234887    -0.16300
C600        C  0.35729586  0.15264520  0.75139625     0.07800
C601        C  0.33397728  0.17884252  0.75061482     0.09600
C602        C  0.31364105  0.20066742  0.75029124    -0.17100
C603        C  0.26511270  0.29831029  0.79982047    -0.16300
C604        C  0.26535760  0.31885327  0.82151315     0.07800
C605        C  0.26536001  0.34280263  0.84724599     0.09600
C606        C  0.26479117  0.36313317  0.86913140    -0.17100
C607        C  0.81803091  0.56270414  0.95350334    -0.16300
C608        C  0.84409428  0.55741798  0.96748824     0.07800
C609        C  0.87523880  0.55052018  0.98287243     0.09600
C610        C  0.90197253  0.54261846  0.99403738    -0.17100
C611        C  0.95872907  0.80928610  0.57375412    -0.16300
C612        C  0.97324495  0.83525050  0.56876976     0.07800
C613        C  0.98915379  0.86655081  0.56282962     0.09600
C614        C  0.00090547  0.89361852  0.55660965    -0.17100
C615        C  0.75611248  0.69391759  0.80108101    -0.16300
C616        C  0.75688280  0.67226741  0.82178474     0.07800
C617        C  0.75754356  0.64693331  0.84635697     0.09600
C618        C  0.75784955  0.62564276  0.86744913    -0.17100
C619        C  0.87210781  0.75151468  0.63881935    -0.16300
C620        C  0.85077093  0.75083608  0.65982086     0.07800
C621        C  0.82538827  0.74951798  0.68427012     0.09600
C622        C  0.80380159  0.74816132  0.70498874    -0.17100
C623        C  0.57277714  0.94646486  0.81563826    -0.16300
C624        C  0.56795847  0.96286151  0.84036506     0.07800
C625        C  0.56189607  0.98145396  0.86992726     0.09600
C626        C  0.55569703  0.99532330  0.89585799    -0.17100
C627        C  0.70285115  0.79125352  0.75452214    -0.16300
C628        C  0.68095330  0.81172156  0.75542906     0.07800
C629        C  0.65542046  0.83611632  0.75662952     0.09600
C630        C  0.63400196  0.85709634  0.75744164    -0.17100
C631        C  0.45984353  0.30797927  0.07459998    -0.16300
C632        C  0.47586283  0.33269556  0.06953238     0.07800
C633        C  0.49384386  0.36214881  0.06278904     0.09600
C634        C  0.50681342  0.38798337  0.05525637    -0.17100
C635        C  0.50738084  0.38947851  0.95586319    -0.16300
C636        C  0.52019056  0.36351854  0.94863175     0.07800
C637        C  0.53753152  0.33360074  0.94256817     0.09600
C638        C  0.55321564  0.30863106  0.93789367    -0.17100
C639        C  0.60939783  0.49763764  0.06062215    -0.16300
C640        C  0.63688180  0.48676816  0.06600774     0.07800
C641        C  0.66883753  0.47178976  0.06915505     0.09600
C642        C  0.69522617  0.45755633  0.07123457    -0.17100
C643        C  0.69767524  0.54216893  0.93411230    -0.16300
C644        C  0.67144435  0.52868228  0.94016578     0.07800
C645        C  0.63998465  0.51379998  0.94733474     0.09600
C646        C  0.61281200  0.50288641  0.95436329    -0.17100
C647        C  0.52517700  0.60651854  0.07224078    -0.16300
C648        C  0.53373402  0.63275862  0.08303616     0.07800
C649        C  0.54571237  0.66453477  0.09054238     0.09600
C650        C  0.55774761  0.69123836  0.09514701    -0.17100
C651        C  0.47655030  0.60994285  0.94950960    -0.16300
C652        C  0.46583102  0.63530897  0.93803086     0.07800
C653        C  0.45152074  0.66560606  0.92760768     0.09600
C654        C  0.43820509  0.69114433  0.91979632    -0.17100
C655        C  0.39590068  0.49538886  0.05753472    -0.16300
C656        C  0.36814760  0.50581909  0.06248844     0.07800
C657        C  0.33615573  0.52055367  0.06652883     0.09600
C658        C  0.30963970  0.53438990  0.06959171    -0.17100
C659        C  0.31813625  0.45077873  0.93538211    -0.16300
C660        C  0.34352151  0.46609603  0.94024675     0.07800
C661        C  0.37420547  0.48279740  0.94607089     0.09600
C662        C  0.40072261  0.49504310  0.95305326    -0.17100
C663        C  0.08694419  0.45332642  0.31010408    -0.16300
C664        C  0.08027222  0.46913253  0.33473976     0.07800
C665        C  0.07182996  0.48633934  0.36448432     0.09600
C666        C  0.06282406  0.49878285  0.39027043    -0.17100
C667        C  0.95381785  0.48555423  0.38802553    -0.16300
C668        C  0.94665833  0.49553311  0.36091780     0.07800
C669        C  0.94075262  0.51141470  0.33031807     0.09600
C670        C  0.93598821  0.52733402  0.30561361    -0.17100
C671        C  0.06447532  0.53605924  0.68556864    -0.16300
C672        C  0.06204649  0.52080193  0.66006466     0.07800
C673        C  0.05859098  0.50509851  0.62891266     0.09600
C674        C  0.05316487  0.49443973  0.60160632    -0.17100
C675        C  0.92323827  0.46419288  0.67896652    -0.16300
C676        C  0.92844295  0.47869751  0.65322939     0.07800
C677        C  0.93583711  0.49424406  0.62237369     0.09600
C678        C  0.94448996  0.50507749  0.59579507    -0.17100
C679        C  0.06288199  0.39559489  0.52732128    -0.16300
C680        C  0.07093467  0.36849078  0.53720918     0.07800
C681        C  0.07631825  0.33581466  0.54941492     0.09600
C682        C  0.08016735  0.30825611  0.56054319    -0.17100
C683        C  0.94907864  0.39243600  0.46514035    -0.16300
C684        C  0.94210083  0.36516392  0.45495303     0.07800
C685        C  0.93835635  0.33256521  0.44202592     0.09600
C686        C  0.93608163  0.30518260  0.43010865    -0.17100
C687        C  0.94430708  0.60310053  0.51566992    -0.16300
C688        C  0.93705246  0.63057801  0.52537930     0.07800
C689        C  0.93313565  0.66313312  0.53878929     0.09600
C690        C  0.93064805  0.69016947  0.55167264    -0.17100
C691        C  0.06086012  0.60404763  0.46662010    -0.16300
C692        C  0.06721426  0.63189335  0.45729090     0.07800
C693        C  0.07042718  0.66493430  0.44488383     0.09600
C694        C  0.07245299  0.69254022  0.43317596    -0.17100
C695        C  0.50313059  0.03670344  0.61661836    -0.16300
C696        C  0.49094375  0.04459317  0.64274705     0.07800
C697        C  0.47417278  0.05221017  0.67273060     0.09600
C698        C  0.45904676  0.05865515  0.69770598    -0.17100
C699        C  0.50306078  0.93789032  0.61589451    -0.16300
C700        C  0.51549583  0.93080303  0.64224851     0.07800
C701        C  0.53216294  0.92454591  0.67278383     0.09600
C702        C  0.54711520  0.91969238  0.69833445    -0.17100
C703        C  0.31568851  0.06481852  0.46519176    -0.16300
C704        C  0.34053975  0.05929932  0.48083050     0.07800
C705        C  0.37057638  0.05184670  0.49748215     0.09600
C706        C  0.39703852  0.04389263  0.50881087    -0.17100
C707        C  0.39763058  0.93555957  0.50610391    -0.16300
C708        C  0.37049555  0.92940049  0.51707261     0.07800
C709        C  0.33891491  0.92561811  0.53218552     0.09600
C710        C  0.31251033  0.92318787  0.54603930    -0.17100
C711        C  0.55864799  0.06868075  0.30753916    -0.16300
C712        C  0.54616464  0.06502916  0.33445131     0.07800
C713        C  0.53327970  0.05923355  0.36664900     0.09600
C714        C  0.52409469  0.05048383  0.39369141    -0.17100
C715        C  0.47477012  0.93447421  0.39052538    -0.16300
C716        C  0.46398606  0.92803225  0.36334771     0.07800
C717        C  0.44972751  0.92510393  0.33122089     0.09600
C718        C  0.43683102  0.92389354  0.30421432    -0.17100
C719        C  0.68413221  0.07550321  0.54684662    -0.16300
C720        C  0.65903480  0.06727370  0.53255199     0.07800
C721        C  0.62899639  0.05683805  0.51700925     0.09600
C722        C  0.60317308  0.04624850  0.50596026    -0.17100
C723        C  0.60695612  0.93413292  0.50493620    -0.16300
C724        C  0.63417762  0.92714762  0.49483663     0.07800
C725        C  0.66542256  0.92100625  0.47999194     0.09600
C726        C  0.69114694  0.91613639  0.46562347    -0.17100
loop_ 
_geom_bond_atom_site_label_1 
_geom_bond_atom_site_label_2 
_geom_bond_distance 
_geom_bond_site_symmetry_2 
_ccdc_geom_bond_type 
O1            C9   1.262       .  A
O1          Co21   1.975       .  S
O2           C10   1.271       .  A
O2          Co22   1.975       .  S
O3           C11   1.290       .  A
O3          Co23   2.083       .  S
O4           C12   1.265       .  A
O4          Co24   1.996   1_565  S
O5           C11   1.273       .  A
O5          Co22   1.943       .  S
O6           C12   1.278       .  A
O6          Co21   2.021       .  S
O7           C10   1.283       .  A
O7          Co24   2.057   1_565  S
O8            C9   1.270       .  A
O8          Co23   2.034       .  S
C9          C723   1.458       .  S
C10         C707   1.460       .  S
C11         C699   1.467       .  S
C12         C715   1.461       .  S
O13          C26   1.264       .  A
O13         Co21   1.995   1_545  S
O14          C27   1.288       .  A
O14         Co22   2.080   1_545  S
O15          C28   1.269       .  A
O15         Co23   1.974   1_545  S
O16          C29   1.260       .  A
O16         Co24   1.970       .  S
O17          C29   1.269       .  A
O17         Co22   2.038   1_545  S
O18          C28   1.286       .  A
O18         Co21   2.071   1_545  S
O19          C26   1.274       .  A
O19         Co24   2.010       .  S
O20          C27   1.272       .  A
O20         Co23   1.939   1_545  S
Co21         O25   2.072       .  S
Co22         O25   2.067       .  S
Co23         O25   2.063       .  S
Co24         O25   2.065   1_545  S
C26         C714   1.457       .  S
C27         C695   1.460       .  S
C28         C722   1.468       .  S
C29         C706   1.458       .  S
O30          C38   1.261       .  A
O30         Co50   1.999   1_655  S
O31          C39   1.263       .  A
O31         Co51   2.006   1_655  S
O32          C40   1.262       .  A
O32         Co52   1.964       .  S
O33          C41   1.263       .  A
O33         Co53   1.966       .  S
O34          C40   1.275       .  A
O34         Co51   2.050   1_655  S
O35          C41   1.278       .  A
O35         Co50   2.064   1_655  S
O36          C39   1.274       .  A
O36         Co53   2.015       .  S
O37          C38   1.277       .  A
O37         Co52   2.025       .  S
C38         C687   1.466       .  S
C39         C683   1.461       .  S
C40         C667   1.451       .  S
C41         C678   1.465       .  S
O42          C55   1.264       .  A
O42         Co50   1.967       .  S
O43          C56   1.263       .  A
O43         Co51   1.966       .  S
O44          C57   1.264       .  A
O44         Co52   2.004   1_455  S
O45          C58   1.265       .  A
O45         Co53   2.010   1_455  S
O46          C58   1.274       .  A
O46         Co51   2.011       .  S
O47          C57   1.278       .  A
O47         Co50   2.021       .  S
O48          C55   1.274       .  A
O48         Co53   2.047   1_455  S
O49          C56   1.278       .  A
O49         Co52   2.067   1_455  S
Co50         O54   2.141       .  S
Co51         O54   2.140       .  S
Co52         O54   2.138   1_655  S
Co53         O54   2.138   1_655  S
C55         C674   1.454       .  S
C56         C666   1.469       .  S
C57         C691   1.468       .  S
C58         C679   1.462       .  S
O59          C67   1.261       .  A
O59         Co79   1.974       .  S
O60          C68   1.271       .  A
O60         Co80   1.981       .  S
O61          C69   1.289       .  A
O61         Co81   2.074   1_554  S
O62          C70   1.266       .  A
O62         Co82   1.997   1_554  S
O63          C69   1.275       .  A
O63         Co80   1.939       .  S
O64          C70   1.268       .  A
O64         Co79   1.993       .  S
O65          C68   1.281       .  A
O65         Co82   2.060   1_554  S
O66          C67   1.269       .  A
O66         Co81   2.046   1_554  S
C67         C655   1.472       .  S
C68         C639   1.469       .  S
C69         C634   1.458       .  S
C70         C647   1.442       .  S
O71          C84   1.267       .  A
O71         Co79   2.006   1_556  S
O72          C85   1.290       .  A
O72         Co80   2.077   1_556  S
O73          C86   1.271       .  A
O73         Co81   1.978       .  S
O74          C87   1.263       .  A
O74         Co82   1.977       .  S
O75          C87   1.273       .  A
O75         Co80   2.054   1_556  S
O76          C86   1.283       .  A
O76         Co79   2.061   1_556  S
O77          C84   1.271       .  A
O77         Co82   2.004       .  S
O78          C85   1.272       .  A
O78         Co81   1.932       .  S
Co79         O83   2.079       .  S
Co80         O83   2.067       .  S
Co81         O83   2.061   1_556  S
Co82         O83   2.077   1_556  S
C84         C651   1.456       .  S
C85         C635   1.456       .  S
C86         C662   1.469       .  S
C87         C646   1.476       .  S
C88         C623   1.477       .  S
C88          C89   1.416       .  A
C88          C93   1.415       .  A
C89          C90   1.415       .  A
C89          H94   1.084       .  S
C90         C702   1.473       .  S
C90          C91   1.412       .  A
C91          C92   1.412       .  A
C91          H95   1.084       .  S
C92         C630   1.472       .  S
C92          C93   1.415       .  A
C93          H96   1.084       .  S
C97         C622   1.466       .  S
C97          N98   1.366       .  A
C97         N102   1.365       .  A
N98          C99   1.366       .  A
C99         C627   1.468       .  S
C99         N100   1.366       .  A
N100        C101   1.366       .  A
C101        C615   1.467       .  S
C101        N102   1.365       .  A
C103        C611   1.484       .  S
C103        C104   1.423       .  A
C103        C108   1.415       .  A
C104        C105   1.422       .  A
C104        H109   1.083       .  S
C105        C690   1.476       .  S
C105        C106   1.409       .  A
C106        C107   1.408       .  A
C106        H110   1.085       .  S
C107        C619   1.469       .  S
C107        C108   1.413       .  A
C108        H111   1.084       .  S
C112        C607   1.476       .  S
C112        C113   1.413       .  A
C112        C117   1.418       .  A
C113        C114   1.412       .  A
C113        H118   1.084       .  S
C114        C618   1.471       .  S
C114        C115   1.413       .  A
C115        C116   1.414       .  A
C115        H119   1.084       .  S
C116        C643   1.480       .  S
C116        C117   1.418       .  A
C117        H120   1.085       .  S
C121        C602   1.458       .  S
C121        N122   1.363       .  A
C121        N126   1.363       .  A
N122        C123   1.364       .  A
C123        C603   1.461       .  S
C123        N124   1.366       .  A
N124        C125   1.366       .  A
C125        C598   1.461       .  S
C125        N126   1.363       .  A
C127        C659   1.476       .  S
C127        C128   1.412       .  A
C127        C132   1.420       .  A
C128        C129   1.410       .  A
C128        H133   1.084       .  S
C129        C606   1.465       .  S
C129        C130   1.408       .  A
C130        C131   1.409       .  A
C130        H134   1.084       .  S
C131        C591   1.475       .  S
C131        C132   1.420       .  A
C132        H135   1.083       .  S
C136        C587   1.466       .  S
C136        C137   1.409       .  A
C136        C141   1.413       .  A
C137        C138   1.409       .  A
C137        H142   1.084       .  S
C138        C599   1.462       .  S
C138        C139   1.409       .  A
C139        C140   1.410       .  A
C139        H143   1.084       .  S
C140        C698   1.466       .  S
C140        C141   1.413       .  A
C141        H144   1.084       .  S
C145        C583   1.480       .  S
C145        C146   1.420       .  A
C145        C150   1.415       .  A
C146        C147   1.419       .  A
C146        H151   1.083       .  S
C147        C682   1.471       .  S
C147        C148   1.406       .  A
C148        C149   1.406       .  A
C148        H152   1.084       .  S
C149        C595   1.465       .  S
C149        C150   1.414       .  A
C150        H153   1.084       .  S
O154        C162   1.258   1_565  A
O154       Co174   1.966       .  S
O155        C163   1.270   1_545  A
O155       Co175   1.976       .  S
O156        C164   1.292   1_556  A
O156       Co176   2.085       .  S
O157        C165   1.266       .  A
O157       Co177   1.995       .  S
O158        C164   1.273       .  A
O158       Co175   1.933       .  S
O159        C165   1.270   1_556  A
O159       Co174   1.994       .  S
O160        C163   1.283       .  A
O160       Co177   2.062       .  S
O161        C162   1.271       .  A
O161       Co176   2.054       .  S
C162        C626   1.472   1_545  S
C163        C570   1.463       .  S
C164        C579   1.460       .  S
C165        C559   1.442       .  S
O166        C179   1.265       .  A
O166       Co174   2.000       .  S
O167        C180   1.289   1_554  A
O167       Co175   2.078       .  S
O168        C181   1.270   1_545  A
O168       Co176   1.973       .  S
O169        C182   1.261   1_565  A
O169       Co177   1.973       .  S
O170        C182   1.271       .  A
O170       Co175   2.045       .  S
O171        C181   1.283       .  A
O171       Co174   2.058       .  S
O172        C179   1.274   1_554  A
O172       Co177   2.012       .  S
O173        C180   1.273       .  A
O173       Co176   1.936       .  S
Co174       O178   2.062   1_556  S
Co175       O178   2.053   1_545  S
Co176       O178   2.061   1_546  S
Co177       O178   2.064       .  S
C179        C563   1.457       .  S
C180        C575   1.458   1_556  S
C181        C590   1.458   1_565  S
C182        C574   1.464       .  S
C183        C555   1.454       .  S
C183        N184   1.361       .  A
C183        N188   1.362       .  A
N184        C185   1.361       .  A
C185        C554   1.454       .  S
C185        N186   1.363       .  A
N186        C187   1.364       .  A
C187        C547   1.455       .  S
C187        N188   1.363       .  A
C189        C654   1.462       .  S
C189        C190   1.407       .  A
C189        C194   1.412       .  A
C190        C191   1.407       .  A
C190        H195   1.084       .  S
C191        C558   1.458       .  S
C191        C192   1.409       .  A
C192        C193   1.409       .  A
C192        H196   1.085       .  S
C193        C566   1.464       .  S
C193        C194   1.412       .  A
C194        H197   1.084       .  S
C198        C543   1.464       .  S
C198        C199   1.408       .  A
C198        C203   1.415       .  A
C199        C200   1.406       .  A
C199        H204   1.084       .  S
C200        C551   1.458       .  S
C200        C201   1.407       .  A
C201        C202   1.409       .  A
C201        H205   1.084       .  S
C202        C710   1.467       .  S
C202        C203   1.415       .  A
C203        H206   1.085       .  S
C207        C542   1.461       .  S
C207        C208   1.409       .  A
C207        C212   1.412       .  A
C208        C209   1.408       .  A
C208        H213   1.085       .  S
C209        C550   1.458       .  S
C209        C210   1.406       .  A
C210        C211   1.406       .  A
C210        H214   1.084       .  S
C211        C671   1.461       .  S
C211        C212   1.411       .  A
C212        H215   1.084       .  S
C216        C531   1.460       .  S
C216        N217   1.364       .  A
C216        N221   1.364       .  A
N217        C218   1.364       .  A
C218        C527   1.457       .  S
C218        N219   1.362       .  A
N219        C220   1.362       .  A
C220        C535   1.458       .  S
C220        N221   1.364       .  A
C222        C686   1.469       .  S
C222        C223   1.406       .  A
C222        C227   1.418       .  A
C223        C224   1.406       .  A
C223        H228   1.084       .  S
C224        C538   1.463       .  S
C224        C225   1.412       .  A
C225        C226   1.414       .  A
C225        H229   1.084       .  S
C226        C523   1.477       .  S
C226        C227   1.419       .  A
C227        H230   1.084       .  S
C231        C519   1.478       .  S
C231        C232   1.410       .  A
C231        C236   1.422       .  A
C232        C233   1.408       .  A
C232        H237   1.084       .  S
C233        C534   1.463       .  S
C233        C234   1.408       .  A
C234        C235   1.410       .  A
C234        H238   1.083       .  S
C235        C642   1.476       .  S
C235        C236   1.422       .  A
C236        H239   1.084       .  S
C240        C567   1.469       .  S
C240        C241   1.410       .  A
C240        C245   1.416       .  A
C241        C242   1.408       .  A
C241        H246   1.084       .  S
C242        C530   1.460       .  S
C242        C243   1.407       .  A
C243        C244   1.408       .  A
C243        H247   1.084       .  S
C244        C711   1.466       .  S
C244        C245   1.416       .  A
C245        H248   1.085       .  S
O249        C257   1.267   1_556  A
O249       Co269   1.976       .  S
O250        C258   1.257       .  A
O250       Co270   1.965   1_556  S
O251        C259   1.262       .  A
O251       Co271   1.989       .  S
O252        C260   1.292   1_455  A
O252       Co272   2.088       .  S
O253        C259   1.270   1_455  A
O253       Co270   2.001       .  S
O254        C260   1.271       .  A
O254       Co269   1.926       .  S
O255        C258   1.269       .  A
O255       Co272   2.050       .  S
O256        C257   1.281       .  A
O256       Co271   2.065       .  S
C257        C610   1.469   1_554  S
C258        C515   1.471       .  S
C259        C507   1.447       .  S
C260        C539   1.454       .  S
O261        C274   1.293   1_655  A
O261       Co269   2.083       .  S
O262        C275   1.266       .  A
O262       Co270   2.000       .  S
O263        C276   1.265   1_554  A
O263       Co271   1.977       .  S
O264        C277   1.275       .  A
O264       Co272   1.986       .  S
O265        C277   1.283   1_554  A
O265       Co270   2.059       .  S
O266        C276   1.272       .  A
O266       Co269   2.045       .  S
O267        C274   1.274       .  A
O267       Co272   1.941       .  S
O268        C275   1.278       .  A
O268       Co271   2.019   1_455  S
Co269       O273   2.065   1_656  S
Co270       O273   2.070       .  S
Co271       O273   2.092   1_655  S
Co272       O273   2.079   1_556  S
C274        C503   1.468   1_455  S
C275        C514   1.464       .  S
C276        C522   1.473       .  S
C277        C594   1.469       .  S
C278        C495   1.466       .  S
C278        C279   1.411       .  A
C278        C283   1.411       .  A
C279        C280   1.411       .  A
C279        H284   1.084       .  S
C280        C499   1.466       .  S
C280        C281   1.410       .  A
C281        C282   1.410       .  A
C281        H285   1.084       .  S
C282        C703   1.465       .  S
C282        C283   1.411       .  A
C283        H286   1.084       .  S
C287        C502   1.463       .  S
C287        N288   1.365       .  A
C287        N292   1.366       .  A
N288        C289   1.364       .  A
C289        C494   1.459       .  S
C289        N290   1.362       .  A
N290        C291   1.363       .  A
C291        C490   1.462       .  S
C291        N292   1.366       .  A
C293        C511   1.472       .  S
C293        C294   1.418       .  A
C293        C298   1.408       .  A
C294        C295   1.418       .  A
C294        H299   1.083       .  S
C295        C663   1.475       .  S
C295        C296   1.412       .  A
C296        C297   1.411       .  A
C296        H300   1.084       .  S
C297        C491   1.463       .  S
C297        C298   1.408       .  A
C298        H301   1.085       .  S
C302        C578   1.464       .  S
C302        C303   1.411       .  A
C302        C307   1.410       .  A
C303        C304   1.410       .  A
C303        H308   1.084       .  S
C304        C487   1.466       .  S
C304        C305   1.412       .  A
C305        C306   1.412       .  A
C305        H309   1.083       .  S
C306        C631   1.465       .  S
C306        C307   1.410       .  A
C307        H310   1.085       .  S
C311        C486   1.464       .  S
C311        N312   1.366       .  A
C311        N316   1.365       .  A
N312        C313   1.365       .  A
C313        C479   1.461       .  S
C313        N314   1.364       .  A
N314        C315   1.363       .  A
C315        C475   1.462       .  S
C315        N316   1.365       .  A
C317        C675   1.473       .  S
C317        C318   1.413       .  A
C317        C322   1.417       .  A
C318        C319   1.412       .  A
C318        H323   1.084       .  S
C319        C483   1.468       .  S
C319        C320   1.410       .  A
C320        C321   1.410       .  A
C320        H324   1.084       .  S
C321        C506   1.472       .  S
C321        C322   1.416       .  A
C322        H325   1.084       .  S
C326        C638   1.463       .  S
C326        C327   1.408       .  A
C326        C331   1.412       .  A
C327        C328   1.408       .  A
C327        H332   1.085       .  S
C328        C482   1.464       .  S
C328        C329   1.412       .  A
C329        C330   1.412       .  A
C329        H333   1.084       .  S
C330        C582   1.467       .  S
C330        C331   1.412       .  A
C331        H334   1.084       .  S
C335        C719   1.475       .  S
C335        C336   1.418       .  A
C335        C340   1.414       .  A
C336        C337   1.417       .  A
C336        H341   1.083       .  S
C337        C471   1.471       .  S
C337        C338   1.408       .  A
C338        C339   1.408       .  A
C338        H342   1.084       .  S
C339        C478   1.466       .  S
C339        C340   1.413       .  A
C340        H343   1.084       .  S
C344        C459   1.436       .  S
C344        N345   1.359       .  A
C344        N349   1.355       .  A
N345        C346   1.360       .  A
C346        C463   1.444       .  S
C346        N347   1.362       .  A
N347        C348   1.361       .  A
C348        C467   1.441       .  S
C348        N349   1.355       .  A
C350        C726   1.463       .  S
C350        C351   1.408       .  A
C350        C355   1.415       .  A
C351        C352   1.405       .  A
C351        H356   1.084       .  S
C352        C470   1.447       .  S
C352        C353   1.400       .  A
C353        C354   1.400       .  A
C353        H357   1.084       .  S
C354        C455   1.457       .  S
C354        C355   1.414       .  A
C355        H358   1.083       .  S
C359        C510   1.456       .  S
C359        C360   1.404       .  A
C359        C364   1.412       .  A
C360        C361   1.403       .  A
C360        H365   1.085       .  S
C361        C466   1.448       .  S
C361        C362   1.403       .  A
C362        C363   1.405       .  A
C362        H366   1.085       .  S
C363        C670   1.457       .  S
C363        C364   1.412       .  A
C364        H367   1.083       .  S
C368        C562   1.449       .  S
C368        C369   1.402       .  A
C368        C373   1.410       .  A
C369        C370   1.400       .  A
C369        H374   1.085       .  S
C370        C462   1.440       .  S
C370        C371   1.399       .  A
C371        C372   1.400       .  A
C371        H375   1.085       .  S
C372        C650   1.449       .  S
C372        C373   1.410       .  A
C373        H376   1.083       .  S
C377        C447   1.462       .  S
C377        N378   1.366       .  A
C377        N382   1.362       .  A
N378        C379   1.366       .  A
C379        C443   1.467       .  S
C379        N380   1.367       .  A
N380        C381   1.366       .  A
C381        C451   1.461       .  S
C381        N382   1.362       .  A
C383        C718   1.470       .  S
C383        C384   1.409       .  A
C383        C388   1.416       .  A
C384        C385   1.409       .  A
C384        H389   1.084       .  S
C385        C454   1.464       .  S
C385        C386   1.410       .  A
C386        C387   1.411       .  A
C386        H390   1.084       .  S
C387        C571   1.470       .  S
C387        C388   1.416       .  A
C388        H391   1.084       .  S
C392        C694   1.476       .  S
C392        C393   1.408       .  A
C392        C397   1.421       .  A
C393        C394   1.407       .  A
C393        H398   1.084       .  S
C394        C450   1.466       .  S
C394        C395   1.413       .  A
C395        C396   1.415       .  A
C395        H399   1.084       .  S
C396        C439   1.481       .  S
C396        C397   1.422       .  A
C397        H400   1.083       .  S
C401        C658   1.477       .  S
C401        C402   1.413       .  A
C401        C406   1.418       .  A
C402        C403   1.412       .  A
C402        H407   1.084       .  S
C403        C446   1.471       .  S
C403        C404   1.412       .  A
C404        C405   1.413       .  A
C404        H408   1.084       .  S
C405        C518   1.477       .  S
C405        C406   1.418       .  A
C406        H409   1.084       .  S
O410        C418   1.262   1_655  A
O410       Co430   1.973       .  S
O411        C419   1.268       .  A
O411       Co431   1.976       .  S
O412        C420   1.293   1_565  A
O412       Co432   2.084       .  S
O413        C421   1.266       .  A
O413       Co433   1.999       .  S
O414        C420   1.272       .  A
O414       Co431   1.930       .  S
O415        C421   1.278   1_565  A
O415       Co430   2.019       .  S
O416        C419   1.285   1_655  A
O416       Co433   2.076       .  S
O417        C418   1.272       .  A
O417       Co432   2.055       .  S
C418        C614   1.479       .  S
C419        C586   1.474       .  S
C420        C546   1.458       .  S
C421        C474   1.464       .  S
O422        C435   1.261       .  A
O422       Co430   1.982       .  S
O423        C436   1.290   1_545  A
O423       Co431   2.078       .  S
O424        C437   1.269   1_455  A
O424       Co432   1.979       .  S
O425        C438   1.258   1_655  A
O425       Co433   1.970       .  S
O426        C438   1.272       .  A
O426       Co431   2.056       .  S
O427        C437   1.286       .  A
O427       Co430   2.077       .  S
O428        C435   1.271   1_545  A
O428       Co433   2.006       .  S
O429        C436   1.273       .  A
O429       Co432   1.937       .  S
Co430       O434   2.086   1_565  S
Co431       O434   2.071   1_455  S
Co432       O434   2.072   1_465  S
Co433       O434   2.080       .  S
C435        C458   1.447       .  S
C436        C498   1.460       .  S
C437        C442   1.475   1_655  S
C438        C526   1.471       .  S
C439        C440   1.231       .  T
C440        C441   1.452       .  S
C441        C442   1.230       .  T
C443        C444   1.224       .  T
C444        C445   1.442       .  S
C445        C446   1.225       .  T
C447        C448   1.221       .  T
C448        C449   1.438       .  S
C449        C450   1.222       .  T
C451        C452   1.221       .  T
C452        C453   1.436       .  S
C453        C454   1.221       .  T
C455        C456   1.216       .  T
C456        C457   1.428       .  S
C457        C458   1.215       .  T
C459        C460   1.206       .  T
C460        C461   1.412       .  S
C461        C462   1.206       .  T
C463        C464   1.211       .  T
C464        C465   1.420       .  S
C465        C466   1.211       .  T
C467        C468   1.209       .  T
C468        C469   1.418       .  S
C469        C470   1.210       .  T
C471        C472   1.225       .  T
C472        C473   1.443       .  S
C473        C474   1.225       .  T
C475        C476   1.221       .  T
C476        C477   1.437       .  S
C477        C478   1.221       .  T
C479        C480   1.221       .  T
C480        C481   1.436       .  S
C481        C482   1.221       .  T
C483        C484   1.223       .  T
C484        C485   1.439       .  S
C485        C486   1.223       .  T
C487        C488   1.221       .  T
C488        C489   1.437       .  S
C489        C490   1.221       .  T
C491        C492   1.220       .  T
C492        C493   1.435       .  S
C493        C494   1.220       .  T
C495        C496   1.222       .  T
C496        C497   1.437       .  S
C497        C498   1.221   1_545  T
C499        C500   1.222       .  T
C500        C501   1.438       .  S
C501        C502   1.222       .  T
C503        C504   1.226       .  T
C504        C505   1.444       .  S
C505        C506   1.226       .  T
C507        C508   1.214       .  T
C508        C509   1.427       .  S
C509        C510   1.215       .  T
C511        C512   1.225       .  T
C512        C513   1.443       .  S
C513        C514   1.225       .  T
C515        C516   1.228   1_556  T
C516        C517   1.448       .  S
C517        C518   1.228       .  T
C519        C520   1.229       .  T
C520        C521   1.449       .  S
C521        C522   1.229   1_554  T
C523        C524   1.228       .  T
C524        C525   1.448       .  S
C525        C526   1.228   1_655  T
C527        C528   1.218       .  T
C528        C529   1.432       .  S
C529        C530   1.218       .  T
C531        C532   1.220       .  T
C532        C533   1.435       .  S
C533        C534   1.220       .  T
C535        C536   1.219       .  T
C536        C537   1.434       .  S
C537        C538   1.219       .  T
C539        C540   1.217   1_655  T
C540        C541   1.432       .  S
C541        C542   1.218       .  T
C543        C544   1.221       .  T
C544        C545   1.436       .  S
C545        C546   1.220   1_565  T
C547        C548   1.217       .  T
C548        C549   1.430       .  S
C549        C550   1.217       .  T
C551        C552   1.217       .  T
C552        C553   1.430       .  S
C553        C554   1.217       .  T
C555        C556   1.217       .  T
C556        C557   1.430       .  S
C557        C558   1.217       .  T
C559        C560   1.211       .  T
C560        C561   1.421       .  S
C561        C562   1.212       .  T
C563        C564   1.220       .  T
C564        C565   1.436       .  S
C565        C566   1.221       .  T
C567        C568   1.224       .  T
C568        C569   1.441       .  S
C569        C570   1.223   1_545  T
C571        C572   1.224       .  T
C572        C573   1.441       .  S
C573        C574   1.224   1_565  T
C575        C576   1.220       .  T
C576        C577   1.436       .  S
C577        C578   1.221       .  T
C579        C580   1.222   1_554  T
C580        C581   1.438       .  S
C581        C582   1.222       .  T
C583        C584   1.230       .  T
C584        C585   1.451       .  S
C585        C586   1.230       .  T
C587        C588   1.221       .  T
C588        C589   1.437       .  S
C589        C590   1.221       .  T
C591        C592   1.227       .  T
C592        C593   1.447       .  S
C593        C594   1.227       .  T
C595        C596   1.221       .  T
C596        C597   1.437       .  S
C597        C598   1.221       .  T
C599        C600   1.219       .  T
C600        C601   1.433       .  S
C601        C602   1.219       .  T
C603        C604   1.221       .  T
C604        C605   1.436       .  S
C605        C606   1.221       .  T
C607        C608   1.228       .  T
C608        C609   1.447       .  S
C609        C610   1.227       .  T
C611        C612   1.232       .  T
C612        C613   1.455       .  S
C613        C614   1.232   1_655  T
C615        C616   1.224       .  T
C616        C617   1.442       .  S
C617        C618   1.224       .  T
C619        C620   1.224       .  T
C620        C621   1.441       .  S
C621        C622   1.224       .  T
C623        C624   1.228       .  T
C624        C625   1.448       .  S
C625        C626   1.228       .  T
C627        C628   1.225       .  T
C628        C629   1.444       .  S
C629        C630   1.225       .  T
C631        C632   1.221       .  T
C632        C633   1.437       .  S
C633        C634   1.220       .  T
C635        C636   1.219       .  T
C636        C637   1.434       .  S
C637        C638   1.220       .  T
C639        C640   1.227       .  T
C640        C641   1.448       .  S
C641        C642   1.228       .  T
C643        C644   1.230       .  T
C644        C645   1.452       .  S
C645        C646   1.230       .  T
C647        C648   1.211       .  T
C648        C649   1.421       .  S
C649        C650   1.211       .  T
C651        C652   1.219       .  T
C652        C653   1.434       .  S
C653        C654   1.219       .  T
C655        C656   1.228       .  T
C656        C657   1.448       .  S
C657        C658   1.228       .  T
C659        C660   1.228       .  T
C660        C661   1.447       .  S
C661        C662   1.227       .  T
C663        C664   1.227       .  T
C664        C665   1.446       .  S
C665        C666   1.226       .  T
C667        C668   1.216       .  T
C668        C669   1.429       .  S
C669        C670   1.216       .  T
C671        C672   1.218       .  T
C672        C673   1.433       .  S
C673        C674   1.218       .  T
C675        C676   1.226       .  T
C676        C677   1.444       .  S
C677        C678   1.225       .  T
C679        C680   1.224       .  T
C680        C681   1.442       .  S
C681        C682   1.224       .  T
C683        C684   1.223       .  T
C684        C685   1.441       .  S
C685        C686   1.224       .  T
C687        C688   1.227       .  T
C688        C689   1.448       .  S
C689        C690   1.228       .  T
C691        C692   1.228       .  T
C692        C693   1.448       .  S
C693        C694   1.228       .  T
C695        C696   1.221       .  T
C696        C697   1.438       .  S
C697        C698   1.222       .  T
C699        C700   1.225       .  T
C700        C701   1.444       .  S
C701        C702   1.226       .  T
C703        C704   1.221       .  T
C704        C705   1.436       .  S
C705        C706   1.220       .  T
C707        C708   1.222       .  T
C708        C709   1.439       .  S
C709        C710   1.222       .  T
C711        C712   1.221       .  T
C712        C713   1.437       .  S
C713        C714   1.220       .  T
C715        C716   1.223       .  T
C716        C717   1.441       .  S
C717        C718   1.224       .  T
C719        C720   1.227       .  T
C720        C721   1.446       .  S
C721        C722   1.226       .  T
C723        C724   1.220       .  T
C724        C725   1.435       .  S
C725        C726   1.220       .  T
