geometry optimzed in LAMMPS
_audit_creation_date              2020-11-30 
_audit_creation_method            'lammps2cif' 
_symmetry_space_group_name_H-M    'P1' 
_symmetry_Int_Tables_number       1 
_symmetry_cell_setting            triclinic 
loop_ 
_symmetry_equiv_pos_as_xyz 
  x,y,z 
_cell_length_a                    33.59907622 
_cell_length_b                    33.87444634133218 
_cell_length_c                    38.29964720225854 
_cell_angle_alpha                 90.18400416620352 
_cell_angle_beta                  89.99721994726532 
_cell_angle_gamma                 89.87609316301742 
loop_ 
_atom_site_label 
_atom_site_type_symbol 
_atom_site_fract_x 
_atom_site_fract_y 
_atom_site_fract_z 
_atom_site_charge 
N1          N  0.50071580  0.44215478  0.77646748    -0.36700
N2          N  0.56215263  0.50384768  0.77777303    -0.57200
N3          N  0.49626848  0.55954814  0.77482042    -0.36700
N4          N  0.43494098  0.49800624  0.77647472    -0.57200
C5          C  0.53424842  0.42079238  0.78099532     0.26900
C6          C  0.46952187  0.41762963  0.78122617     0.26900
C7          C  0.52742361  0.58428228  0.77903572     0.26900
C8          C  0.46269111  0.58120692  0.77815467     0.26900
C9          C  0.58406669  0.47253283  0.76696708     0.35500
C10         C  0.58195013  0.53645660  0.76711840     0.35500
C11         C  0.41565778  0.46488927  0.76618437     0.35500
C12         C  0.41337677  0.52879755  0.76423311     0.35500
C13         C  0.52435822  0.38238746  0.78984910    -0.21900
C14         C  0.48341979  0.38038790  0.79002808    -0.21900
C15         C  0.51347227  0.62195625  0.78638282    -0.21900
C16         C  0.47257251  0.62002617  0.78579891    -0.21900
C17         C  0.61887103  0.48529963  0.75127252    -0.23000
C18         C  0.61757705  0.52574703  0.75141393    -0.23000
C19         C  0.38082561  0.47476706  0.74884354    -0.23000
C20         C  0.37940737  0.51522697  0.74758227    -0.23000
C21         C  0.57217160  0.43259376  0.76927854    -0.18300
C22         C  0.43018194  0.42591485  0.77041664    -0.18300
C23         C  0.42476955  0.56892304  0.76656653    -0.18300
C24         C  0.56693490  0.57552480  0.76893018    -0.18300
H25         H  0.54457124  0.35775164  0.79317038     0.14600
H26         H  0.46592068  0.35390628  0.79356735     0.14600
H27         H  0.53096599  0.64858101  0.78916505     0.14600
H28         H  0.45243251  0.64490781  0.78793797     0.14600
H29         H  0.64209852  0.46738276  0.73967044     0.12800
H30         H  0.63955192  0.54486166  0.73969265     0.12800
H31         H  0.35938615  0.45495347  0.73712141     0.12800
H32         H  0.35661776  0.53257345  0.73480553     0.12800
H33         H  0.49947127  0.46889240  0.76346902     0.26100
H34         H  0.49774964  0.53209664  0.76292156     0.26100
N35         N  0.49834386  0.55851802  0.93142928    -0.36700
N36         N  0.55901127  0.49748495  0.92741407    -0.57200
N37         N  0.50123588  0.43374149  0.92705957    -0.36700
N38         N  0.44053296  0.49526661  0.92903439    -0.57200
C39         C  0.53049464  0.57733332  0.94474628     0.26900
C40         C  0.46564105  0.57642966  0.94484705     0.26900
C41         C  0.53429028  0.41513824  0.93882844     0.26900
C42         C  0.46958105  0.41385436  0.93992191     0.26900
C43         C  0.58191858  0.53002153  0.92469172     0.35500
C44         C  0.58331219  0.46618778  0.92238210     0.35500
C45         C  0.41596251  0.52674962  0.92646639     0.35500
C46         C  0.41760608  0.46286458  0.92500156     0.35500
C47         C  0.51802660  0.60811784  0.96612046    -0.21900
C48         C  0.47713891  0.60765133  0.96606575    -0.21900
C49         C  0.52348216  0.38215952  0.95799387    -0.21900
C50         C  0.48266718  0.38134039  0.95865960    -0.21900
C51         C  0.62056114  0.51944626  0.91602816    -0.23000
C52         C  0.62147456  0.47891490  0.91470248    -0.23000
C53         C  0.37760102  0.51435265  0.91901803    -0.23000
C54         C  0.37861457  0.47382488  0.91827592    -0.23000
C55         C  0.57074661  0.56710989  0.93841338    -0.18300
C56         C  0.42576054  0.56468573  0.93909177    -0.18300
C57         C  0.42923987  0.42497470  0.93622387    -0.18300
C58         C  0.57391553  0.42783694  0.93377427    -0.18300
H59         H  0.53639380  0.62835611  0.98090901     0.14600
H60         H  0.45814558  0.62741095  0.98083878     0.14600
H61         H  0.54290675  0.36142568  0.97109755     0.14600
H62         H  0.46475174  0.35985894  0.97235442     0.14600
H63         H  0.64608413  0.53875119  0.91401043     0.12800
H64         H  0.64783043  0.46081441  0.91155331     0.12800
H65         H  0.35110323  0.53248483  0.91738266     0.12800
H66         H  0.35307161  0.45456495  0.91602514     0.12800
H67         H  0.49866077  0.53596857  0.91285094     0.26100
H68         H  0.50032452  0.45795295  0.91035338     0.26100
N69         N  0.49191828  0.12273887  0.40485364    -0.36700
N70         N  0.43170948  0.12069525  0.35126246    -0.57200
N71         N  0.49266399  0.12235564  0.29682742    -0.36700
N72         N  0.55294479  0.12573936  0.35051708    -0.57200
C73         C  0.45885794  0.13189674  0.42353148     0.26900
C74         C  0.52362198  0.13651523  0.42298398     0.26900
C75         C  0.45992913  0.13498092  0.27941619     0.26900
C76         C  0.52483977  0.13504045  0.27869326     0.26900
C77         C  0.40842524  0.11332942  0.37927531     0.35500
C78         C  0.40866056  0.11563228  0.32271098     0.35500
C79         C  0.57629916  0.12217735  0.37907625     0.35500
C80         C  0.57669841  0.11985869  0.32242818     0.35500
C81         C  0.46975058  0.15141381  0.45393473    -0.21900
C82         C  0.51053875  0.15438189  0.45356461    -0.21900
C83         C  0.47149973  0.15579033  0.24999606    -0.21900
C84         C  0.51238399  0.15579716  0.24953377    -0.21900
C85         C  0.37065294  0.10235803  0.36841002    -0.23000
C86         C  0.37075467  0.10401194  0.33252527    -0.23000
C87         C  0.61495103  0.11314039  0.36915628    -0.23000
C88         C  0.61516563  0.11147972  0.33325284    -0.23000
C89         C  0.41915908  0.12266222  0.41405417    -0.18300
C90         C  0.56413934  0.13194175  0.41341726    -0.18300
C91         C  0.56516828  0.12807169  0.28761500    -0.18300
C92         C  0.41988034  0.12714225  0.28868932    -0.18300
H93         H  0.45035026  0.16280642  0.47416532     0.14600
H94         H  0.52847386  0.16833702  0.47354608     0.14600
H95         H  0.45247328  0.16985958  0.23091282     0.14600
H96         H  0.53082259  0.17002428  0.23014520     0.14600
H97         H  0.34513998  0.09595196  0.38467588     0.12800
H98         H  0.34539352  0.09898768  0.31567256     0.12800
H99         H  0.64059610  0.10960996  0.38597225     0.12800
H100        H  0.64104317  0.10654493  0.31697342     0.12800
H101        H  0.49305704  0.10502104  0.38260884     0.26100
H102        H  0.49303408  0.10334068  0.31816461     0.26100
N103        N  0.86847227  0.49726992  0.29758389    -0.36700
N104        N  0.86450938  0.43665277  0.35185096    -0.57200
N105        N  0.86754767  0.49602250  0.40620371    -0.36700
N106        N  0.86831780  0.55652686  0.35184741    -0.57200
C107        C  0.85655731  0.46543078  0.27896060     0.26900
C108        C  0.85760282  0.52974978  0.27928453     0.26900
C109        C  0.85542232  0.46425407  0.42478058     0.26900
C110        C  0.85691892  0.52860825  0.42453797     0.26900
C111        C  0.86962515  0.41351461  0.32335839     0.35500
C112        C  0.86841531  0.41280873  0.37994875     0.35500
C113        C  0.87524567  0.57969797  0.32384583     0.35500
C114        C  0.87533809  0.57897730  0.38034991     0.35500
C115        C  0.83859797  0.47776822  0.24823886    -0.21900
C116        C  0.83913542  0.51831704  0.24850059    -0.21900
C117        C  0.83773796  0.47677237  0.45559550    -0.21900
C118        C  0.83848842  0.51732054  0.45537735    -0.21900
C119        C  0.87734227  0.37497738  0.33341320    -0.23000
C120        C  0.87659211  0.37453570  0.36925603    -0.23000
C121        C  0.88785688  0.61670369  0.33455157    -0.23000
C122        C  0.88795837  0.61624180  0.37043385    -0.23000
C123        C  0.86194893  0.42550567  0.28866376    -0.18300
C124        C  0.86473933  0.56938318  0.28933033    -0.18300
C125        C  0.86429372  0.56821321  0.41458469    -0.18300
C126        C  0.86005324  0.42424735  0.41474778    -0.18300
H127        H  0.82586281  0.45948567  0.22790258     0.14600
H128        H  0.82686786  0.53715686  0.22841606     0.14600
H129        H  0.82484690  0.45864138  0.47586003     0.14600
H130        H  0.82629926  0.53624046  0.47554334     0.14600
H131        H  0.88161225  0.34955538  0.31662610     0.12800
H132        H  0.88028176  0.34874049  0.38554944     0.12800
H133        H  0.89448862  0.64187822  0.31823835     0.12800
H134        H  0.89458343  0.64106290  0.38730928     0.12800
H135        H  0.88587641  0.49664660  0.32006675     0.26100
H136        H  0.88483735  0.49551400  0.38365581     0.26100
N137        N  0.49588331  0.87210465  0.29671580    -0.36700
N138        N  0.43636697  0.87114995  0.35110893    -0.57200
N139        N  0.49756480  0.87226312  0.40499049    -0.36700
N140        N  0.55714478  0.87109022  0.35066172    -0.57200
C141        C  0.46332383  0.86024884  0.27870055     0.26900
C142        C  0.52811436  0.85961999  0.27858450     0.26900
C143        C  0.46535465  0.86047404  0.42337613     0.26900
C144        C  0.53017530  0.86063469  0.42304805     0.26900
C145        C  0.41256670  0.87698707  0.32312001     0.35500
C146        C  0.41344539  0.87690625  0.37966791     0.35500
C147        C  0.57995475  0.87680050  0.32209950     0.35500
C148        C  0.58085672  0.87729550  0.37864109     0.35500
C149        C  0.47501878  0.84038448  0.24868329    -0.21900
C150        C  0.51590288  0.83995568  0.24861814    -0.21900
C151        C  0.47763294  0.84150878  0.45359074    -0.21900
C152        C  0.51853637  0.84155985  0.45335384    -0.21900
C153        C  0.37458695  0.88730673  0.33393671    -0.23000
C154        C  0.37512419  0.88717939  0.36981745    -0.23000
C155        C  0.61814114  0.88754745  0.33191600    -0.23000
C156        C  0.61868781  0.88796568  0.36781749    -0.23000
C157        C  0.42336081  0.86749916  0.28843650    -0.18300
C158        C  0.56823448  0.86657095  0.28785970    -0.18300
C159        C  0.57010988  0.86780499  0.41327563    -0.18300
C160        C  0.42520169  0.86729307  0.41400430    -0.18300
H161        H  0.45610527  0.82712049  0.22903383     0.14600
H162        H  0.53447751  0.82637094  0.22884339     0.14600
H163        H  0.45909003  0.82864385  0.47364572     0.14600
H164        H  0.53749256  0.82868229  0.47314262     0.14600
H165        H  0.34881817  0.89272711  0.31767434     0.12800
H166        H  0.34984637  0.89246064  0.38673069     0.12800
H167        H  0.64334524  0.89287343  0.31498292     0.12800
H168        H  0.64440448  0.89367175  0.38407147     0.12800
H169        H  0.49616258  0.89054468  0.31853113     0.26100
H170        H  0.49724394  0.89024668  0.38298915     0.26100
N171        N  0.13119252  0.50025712  0.40541535    -0.36700
N172        N  0.13403757  0.43782620  0.35296770    -0.57200
N173        N  0.12789057  0.49881223  0.30008619    -0.36700
N174        N  0.12129709  0.56088078  0.35241247    -0.57200
C175        C  0.12877128  0.46773743  0.42570993     0.26900
C176        C  0.12177110  0.53184034  0.42552916     0.26900
C177        C  0.12230469  0.46587205  0.28071284     0.26900
C178        C  0.11738985  0.53000396  0.28017018     0.26900
C179        C  0.14867876  0.41831677  0.38089624     0.35500
C180        C  0.14598782  0.41744615  0.32440830     0.35500
C181        C  0.12977658  0.58383817  0.38040404     0.35500
C182        C  0.12928904  0.58286629  0.32382950     0.35500
C183        C  0.11679695  0.47872330  0.45903816    -0.21900
C184        C  0.11280646  0.51919634  0.45901649    -0.21900
C185        C  0.10701635  0.47624017  0.24833606    -0.21900
C186        C  0.10456523  0.51677358  0.24779218    -0.21900
C187        C  0.16978076  0.38526930  0.37003338    -0.23000
C188        C  0.16807940  0.38472756  0.33422013    -0.23000
C189        C  0.14161622  0.62099942  0.36954165    -0.23000
C190        C  0.14144696  0.62033500  0.33370719    -0.23000
C191        C  0.14221927  0.42949918  0.41605912    -0.18300
C192        C  0.12687517  0.57173045  0.41564670    -0.18300
C193        C  0.12490951  0.56978175  0.28893062    -0.18300
C194        C  0.13629801  0.42777012  0.28969953    -0.18300
H195        H  0.11311031  0.45977244  0.48150028     0.14600
H196        H  0.10564995  0.53729568  0.48148449     0.14600
H197        H  0.10029911  0.45678336  0.22666225     0.14600
H198        H  0.09565412  0.53440607  0.22562834     0.14600
H199        H  0.18526029  0.36403364  0.38616527     0.12800
H200        H  0.18202338  0.36304707  0.31736776     0.12800
H201        H  0.15003345  0.64588042  0.38569711     0.12800
H202        H  0.14953841  0.64464604  0.31689762     0.12800
H203        H  0.14479503  0.50148322  0.38112362     0.26100
H204        H  0.14432625  0.50045174  0.32300785     0.26100
Zr205      Zr  0.22638872  0.23482553  0.15832073     2.17500
O206        O  0.23600077  0.23940774  0.22136883    -0.51400
O207        O  0.17413040  0.19019447  0.17674863    -0.74600
O208        O  0.19016426  0.28836389  0.18661558    -0.81400
O209        O  0.31726360  0.16619890  0.14990188    -0.83100
O210        O  0.16493250  0.32946121  0.14533881    -0.78700
O211        O  0.27947508  0.19992337  0.18899967    -0.90400
O212        O  0.14512352  0.16007119  0.13047717    -0.76300
O213        O  0.17244201  0.24171107  0.11856144    -0.85800
O214        O  0.22917317  0.17885777  0.12073105    -0.85500
O215        O  0.23856836  0.29667766  0.12939035    -0.72300
O216        O  0.29042136  0.23816638  0.13092160    -0.84400
Zr217      Zr  0.25019583  0.25221870  0.02168162     2.26400
Zr218      Zr  0.18429748  0.30268124  0.08888176     2.06300
Zr219      Zr  0.29209308  0.18301902  0.09206505     2.10000
Zr220      Zr  0.17658909  0.18667980  0.07974852     1.78800
O221        O  0.36423249  0.17740650  0.08817789    -0.93200
O222        O  0.10561204  0.20044551  0.07413581    -0.41000
O223        O  0.23922913  0.19010284  0.05038272    -0.77700
O224        O  0.18628219  0.24714128  0.04975717    -0.96300
O225        O  0.24748577  0.30748166  0.06018127    -0.89600
O226        O  0.30431682  0.24353765  0.06128973    -0.92500
C227        C  0.14883990  0.16637707  0.16314769     1.01300
C228        C  0.30843115  0.17659585  0.18130266     1.14200
C229        C  0.17120829  0.31938225  0.17714177     1.05000
O230        O  0.11211347  0.30785185  0.09231669    -0.94600
O231        O  0.15947891  0.31981661  0.03126801    -0.90400
O232        O  0.19909184  0.28952992  0.99100555    -0.83500
C233        C  0.16921497  0.31109678  0.99972763     1.11600
O234        O  0.32857460  0.32068998  0.15562879    -0.96600
Zr235      Zr  0.30123928  0.29837302  0.10001425     1.88900
O236        O  0.30037701  0.29868790  0.00078838    -0.73300
O237        O  0.19180238  0.37397331  0.08445160    -0.52500
O238        O  0.29791956  0.36969071  0.10797931    -0.97200
O239        O  0.37189093  0.28254027  0.10468438    -0.54400
O240        O  0.32842964  0.32777724  0.04802823    -0.73800
C241        C  0.32428775  0.32350294  0.01500350     0.98600
O242        O  0.23839649  0.24503617  0.95899698    -0.62600
O243        O  0.28240254  0.11181072  0.09589099    -0.57400
O244        O  0.28439679  0.19695127  0.99447771    -0.94100
O245        O  0.30882030  0.15566831  0.03598112    -0.92500
O246        O  0.18683081  0.11583157  0.07329257    -0.92900
O247        O  0.14672853  0.16228756  0.02587474    -0.91700
C248        C  0.30287257  0.16577934  0.00425065     1.17400
H249        H  0.22690335  0.15452186  0.13363042     0.33300
H250        H  0.16464960  0.24732960  0.03330216     0.44200
H251        H  0.32938324  0.24240721  0.04897902     0.37700
H252        H  0.23935953  0.31847487  0.14564448     0.34200
H253        H  0.09237081  0.17467366  0.07766923     0.26000
H254        H  0.16547591  0.38478053  0.09118092     0.31900
H255        H  0.28350954  0.37954922  0.08720536     0.37800
H256        H  0.16078532  0.10393070  0.07914567     0.32300
H257        H  0.30826353  0.10022289  0.08882702     0.31200
H258        H  0.36968607  0.14874083  0.08988034     0.32900
H259        H  0.38183994  0.28127783  0.08038763     0.31800
H260        H  0.16879022  0.16214306  0.00874028     0.35800
H261        H  0.26491193  0.24511861  0.94767756     0.28600
H262        H  0.20920623  0.23738471  0.23200702     0.32800
H263        H  0.35176974  0.33736681  0.14969165     0.35600
H264        H  0.28032701  0.10594676  0.12112239     0.28200
H265        H  0.22785698  0.21803383  0.95543360     0.41100
H266        H  0.10215081  0.28683595  0.07660089     0.31200
H267        H  0.09870831  0.21590487  0.09527623     0.38800
H268        H  0.37262944  0.25486427  0.11289841     0.30600
H269        H  0.20956054  0.38117598  0.10407319     0.30700
H270        H  0.24504017  0.26666317  0.22631473     0.31000
Zr271      Zr  0.24943617  0.74174634  0.02330792     2.17500
O272        O  0.22900521  0.75733370  0.96375553    -0.51400
O273        O  0.29673693  0.69238054  0.00184105    -0.74600
O274        O  0.29142721  0.79129318  0.99500359    -0.81400
O275        O  0.15632581  0.67845095  0.03287841    -0.83100
O276        O  0.31697971  0.83132015  0.03706628    -0.78700
O277        O  0.19981749  0.70295580  0.99285586    -0.90400
O278        O  0.32108771  0.65999728  0.04897330    -0.76300
O279        O  0.30374013  0.74600271  0.06305235    -0.85800
O280        O  0.24166805  0.68702507  0.06177731    -0.85500
O281        O  0.24082206  0.80404103  0.05256125    -0.72300
O282        O  0.18561490  0.74933125  0.05111373    -0.84400
Zr283      Zr  0.22761218  0.76053484  0.16028400     2.26400
Zr284      Zr  0.29506943  0.80761792  0.09334001     2.06300
Zr285      Zr  0.17922075  0.69564412  0.09105110     2.10000
Zr286      Zr  0.29598058  0.69114288  0.10121526     1.78800
O287        O  0.10717797  0.70362470  0.09238708    -0.93200
O288        O  0.36814348  0.69708142  0.10422488    -0.41000
O289        O  0.23391256  0.69810774  0.13114685    -0.77700
O290        O  0.29097861  0.75236310  0.13204297    -0.96300
O291        O  0.23239511  0.81553201  0.12209668    -0.89600
O292        O  0.17209105  0.75677952  0.12159359    -0.92500
C293        C  0.31803299  0.66524337  0.01600038     1.01300
C294        C  0.16851388  0.68368550  0.00144282     1.14200
C295        C  0.31175097  0.82137352  0.00507387     1.05000
O296        O  0.36751410  0.80565996  0.09373886    -0.94600
O297        O  0.31826149  0.82914890  0.15073044    -0.90400
O298        O  0.28041049  0.79681073  0.19045812    -0.83500
C299        C  0.30938188  0.81981706  0.18232359     1.11600
O300        O  0.15167312  0.83758109  0.02779764    -0.96600
Zr301      Zr  0.17843610  0.81032908  0.08182581     1.88900
O302        O  0.17785349  0.80808612  0.17877396    -0.73300
O303        O  0.29089629  0.87948052  0.09334474    -0.52500
O304        O  0.19260549  0.88054374  0.07652741    -0.97200
O305        O  0.10684684  0.80038588  0.07541840    -0.54400
O306        O  0.14980770  0.83978139  0.13284458    -0.73800
C307        C  0.15433427  0.83383240  0.16546743     0.98600
O308        O  0.23522357  0.75695427  0.22364216    -0.62600
O309        O  0.17533559  0.62384023  0.09056124    -0.57400
O310        O  0.19642902  0.70295126  0.18696072    -0.94100
O311        O  0.15881197  0.66979326  0.14732288    -0.92500
O312        O  0.28383348  0.62074817  0.10800722    -0.92900
O313        O  0.32262791  0.66698057  0.15632153    -0.91700
C314        C  0.17178244  0.67565236  0.17839372     1.17400
H315        H  0.24187103  0.66233148  0.04909846     0.33300
H316        H  0.31273686  0.75232606  0.14847115     0.44200
H317        H  0.14710706  0.75743193  0.13412066     0.37700
H318        H  0.24172864  0.82548867  0.03608873     0.34200
H319        H  0.37827059  0.67015228  0.09928607     0.26000
H320        H  0.31836048  0.88849744  0.08848672     0.31900
H321        H  0.16739715  0.89403958  0.08272625     0.37800
H322        H  0.25818759  0.61915275  0.12064809     0.32300
H323        H  0.14733332  0.61796543  0.08440039     0.31200
H324        H  0.09666150  0.67645885  0.09446897     0.32900
H325        H  0.09681902  0.79467864  0.09917203     0.31800
H326        H  0.29987644  0.66824433  0.17273015     0.35800
H327        H  0.20792403  0.75727414  0.23340635     0.28600
H328        H  0.25275975  0.75291762  0.94891683     0.32800
H329        H  0.13105373  0.85691035  0.03498332     0.35600
H330        H  0.19084464  0.61537831  0.06988668     0.28200
H331        H  0.24591228  0.73036353  0.22891488     0.41100
H332        H  0.37583603  0.83211222  0.08562825     0.31200
H333        H  0.37554594  0.71258192  0.08334664     0.38800
H334        H  0.10426378  0.77508911  0.06262618     0.30600
H335        H  0.27577499  0.88619992  0.07197851     0.30700
H336        H  0.22434902  0.78620458  0.96339272     0.31000
Zr337      Zr  0.23022841  0.76456158  0.54371880     2.17500
O338        O  0.23575333  0.76366271  0.48015060    -0.51400
O339        O  0.18349742  0.81519071  0.52576133    -0.74600
O340        O  0.19442144  0.71055977  0.51535566    -0.81400
O341        O  0.32247745  0.83010183  0.55261749    -0.83100
O342        O  0.16086431  0.67468694  0.55573491    -0.78700
O343        O  0.28670541  0.79400084  0.51384580    -0.90400
O344        O  0.15455927  0.84622042  0.57170867    -0.76300
O345        O  0.17528381  0.76091982  0.58276245    -0.85800
O346        O  0.23595078  0.81985978  0.58197497    -0.85500
O347        O  0.23907807  0.70202768  0.57231569    -0.72300
O348        O  0.29390858  0.75755874  0.57125018    -0.84400
Zr349      Zr  0.25153635  0.74690290  0.68048864     2.26400
Zr350      Zr  0.18409037  0.69917096  0.61209517     2.06300
Zr351      Zr  0.29865603  0.81227883  0.61035818     2.10000
Zr352      Zr  0.18204250  0.81516949  0.62225036     1.78800
O353        O  0.37087258  0.80707267  0.61352715    -0.93200
O354        O  0.11065403  0.80444126  0.62817138    -0.41000
O355        O  0.24459792  0.80887085  0.65092614    -0.77700
O356        O  0.18800954  0.75398364  0.65208858    -0.96300
O357        O  0.24642173  0.69172549  0.64190900    -0.89600
O358        O  0.30681703  0.75164157  0.64138114    -0.92500
C359        C  0.16033792  0.84130843  0.53905447     1.01300
C360        C  0.31493141  0.81802228  0.52149319     1.14200
C361        C  0.17111357  0.68231278  0.52419227     1.05000
O362        O  0.11167131  0.69693289  0.61001886    -0.94600
O363        O  0.16052625  0.68022910  0.66921275    -0.90400
O364        O  0.20149030  0.70663079  0.71038705    -0.83500
C365        C  0.17095845  0.68633800  0.70098952     1.11600
O366        O  0.32597507  0.66680291  0.54911995    -0.96600
Zr367      Zr  0.30098244  0.69704239  0.60262338     1.88900
O368        O  0.30050542  0.70014366  0.70248230    -0.73300
O369        O  0.19003925  0.62760908  0.61507749    -0.52500
O370        O  0.29009272  0.62596994  0.60111179    -0.97200
O371        O  0.37168350  0.70674905  0.59122181    -0.54400
O372        O  0.33141512  0.67305839  0.65550937    -0.73800
C373        C  0.32633799  0.67707008  0.68849063     0.98600
O374        O  0.24021859  0.76761036  0.74074642    -0.62600
O375        O  0.30187473  0.88389774  0.60523521    -0.57400
O376        O  0.28723740  0.80081342  0.70873308    -0.94100
O377        O  0.31440108  0.83972800  0.66686038    -0.92500
O378        O  0.19271025  0.88568312  0.63080950    -0.92900
O379        O  0.15615061  0.83950869  0.67773460    -0.91700
C380        C  0.30731262  0.83100723  0.69878808     1.17400
H381        H  0.23564438  0.84448667  0.56929532     0.33300
H382        H  0.16648346  0.75379170  0.66874525     0.44200
H383        H  0.33185232  0.75154402  0.65379733     0.37700
H384        H  0.23902180  0.67997015  0.55632469     0.34200
H385        H  0.09852863  0.83084233  0.62487945     0.26000
H386        H  0.16250323  0.61784379  0.61196905     0.31900
H387        H  0.28346197  0.61869337  0.62544489     0.37800
H388        H  0.21145566  0.89348947  0.61214344     0.32300
H389        H  0.28616130  0.89426493  0.62513878     0.31200
H390        H  0.37981410  0.83322080  0.62203338     0.32900
H391        H  0.38321727  0.71469486  0.61395502     0.31800
H392        H  0.17590408  0.83076544  0.69528729     0.35800
H393        H  0.21132825  0.77309305  0.74254978     0.28600
H394        H  0.20820000  0.76396279  0.47097964     0.32800
H395        H  0.31975319  0.68622110  0.53061510     0.35600
H396        H  0.32977350  0.89068488  0.61095718     0.28200
H397        H  0.24480857  0.74386070  0.75522003     0.41100
H398        H  0.10403238  0.71703876  0.59253728     0.31200
H399        H  0.10299104  0.78949107  0.60698534     0.38800
H400        H  0.37295446  0.73091951  0.57678824     0.30600
H401        H  0.20391363  0.61994032  0.59327382     0.30700
H402        H  0.24655376  0.73735863  0.47384493     0.31000
Zr403      Zr  0.25581984  0.25029378  0.68273748     2.17500
O404        O  0.23909323  0.24244474  0.74436586    -0.51400
O405        O  0.30668208  0.29509712  0.70536879    -0.74600
O406        O  0.29088228  0.19631691  0.71049821    -0.81400
O407        O  0.16525182  0.31693141  0.67018154    -0.83100
O408        O  0.31463779  0.15325851  0.66978945    -0.78700
O409        O  0.20315826  0.28740171  0.71188497    -0.90400
O410        O  0.33966935  0.31890829  0.65849732    -0.76300
O411        O  0.31018997  0.23836252  0.64404531    -0.85800
O412        O  0.25686740  0.30551342  0.64443855    -0.85500
O413        O  0.24139026  0.18849995  0.65368437    -0.72300
O414        O  0.19295574  0.25016647  0.65348394    -0.84400
Zr415      Zr  0.23393898  0.23238548  0.54593599     2.26400
Zr416      Zr  0.29532027  0.17818427  0.61320705     2.06300
Zr417      Zr  0.19481402  0.30424123  0.61383008     2.10000
Zr418      Zr  0.31065909  0.29323811  0.60556198     1.78800
O419        O  0.12353216  0.31268586  0.60485944    -0.93200
O420        O  0.38040238  0.27359211  0.60216427    -0.41000
O421        O  0.24892299  0.29375292  0.57438787    -0.77700
O422        O  0.29761633  0.23344557  0.57450683    -0.96300
O423        O  0.23231104  0.17753194  0.58446328    -0.89600
O424        O  0.17954353  0.24390686  0.58428587    -0.92500
C425        C  0.33405108  0.31626787  0.69145348     1.01300
C426        C  0.17339491  0.30843048  0.70199192     1.14200
C427        C  0.30920332  0.16474257  0.70135660     1.05000
O428        O  0.36750197  0.17154340  0.61298242    -0.94600
O429        O  0.31615609  0.15431801  0.55548696    -0.90400
O430        O  0.28016476  0.18886806  0.51580843    -0.83500
C431        C  0.30739140  0.16381833  0.52386975     1.11600
O432        O  0.15288674  0.16934546  0.68053036    -0.96600
Zr433      Zr  0.17891934  0.18995245  0.62404571     1.88900
O434        O  0.18185535  0.18731712  0.52719955    -0.73300
O435        O  0.28463198  0.10708752  0.61236704    -0.52500
O436        O  0.17629372  0.11843117  0.63014022    -0.97200
O437        O  0.11010147  0.21242021  0.62882935    -0.54400
O438        O  0.14878763  0.16142107  0.57329084    -0.73800
C439        C  0.15526330  0.16474598  0.54060632     0.98600
O440        O  0.25355944  0.24176499  0.48515148    -0.62600
O441        O  0.20424042  0.37478463  0.62324543    -0.57400
O442        O  0.19967226  0.28676497  0.51678518    -0.94100
O443        O  0.18437977  0.33370709  0.55717491    -0.92500
O444        O  0.30822694  0.36443713  0.59715707    -0.92900
O445        O  0.34351217  0.31667487  0.55292693    -0.91700
C446        C  0.18680714  0.32106587  0.52568322     1.17400
H447        H  0.25980629  0.32999341  0.65716045     0.33300
H448        H  0.31904856  0.23064864  0.55789896     0.44200
H449        H  0.15488656  0.24613255  0.57149961     0.37700
H450        H  0.23954554  0.16705692  0.67014319     0.34200
H451        H  0.39553703  0.29831706  0.60576359     0.26000
H452        H  0.31057225  0.09557381  0.61924022     0.31900
H453        H  0.19332725  0.10808895  0.61108403     0.37800
H454        H  0.29608335  0.37514829  0.61875176     0.32300
H455        H  0.22166140  0.38329297  0.60384336     0.31200
H456        H  0.11926065  0.34160794  0.60474836     0.32900
H457        H  0.10094915  0.21655106  0.60454444     0.31800
H458        H  0.32549962  0.30879056  0.53368312     0.35800
H459        H  0.22872095  0.24115419  0.47122092     0.28600
H460        H  0.26460904  0.24403445  0.75724418     0.32800
H461        H  0.12731180  0.15607181  0.67538645     0.35600
H462        H  0.17805379  0.38680041  0.61792758     0.28200
H463        H  0.26337897  0.26922983  0.48351597     0.41100
H464        H  0.37654169  0.18833280  0.59342410     0.31200
H465        H  0.38528486  0.25817522  0.62367035     0.38800
H466        H  0.11192771  0.23932707  0.63887222     0.30600
H467        H  0.26688942  0.10194690  0.63248662     0.30700
H468        H  0.23009437  0.21480070  0.74703903     0.31000
Zr469      Zr  0.76637434  0.76598739  0.16018452     2.17500
O470        O  0.75818268  0.76703090  0.22351636    -0.51400
O471        O  0.81862920  0.81106890  0.17823011    -0.74600
O472        O  0.80111278  0.71232426  0.19010675    -0.81400
O473        O  0.67133155  0.82834316  0.14933233    -0.83100
O474        O  0.83261910  0.67423559  0.14996711    -0.78700
O475        O  0.71062931  0.79798955  0.18930553    -0.90400
O476        O  0.84721400  0.84139531  0.13198619    -0.76300
O477        O  0.82114459  0.76087590  0.12118499    -0.85800
O478        O  0.76134397  0.82106963  0.12170097    -0.85500
O479        O  0.75661094  0.70299038  0.13239230    -0.72300
O480        O  0.70316266  0.75928629  0.13155144    -0.84400
Zr481      Zr  0.74526641  0.74484244  0.02325376     2.26400
Zr482      Zr  0.81174810  0.69851506  0.09287717     2.06300
Zr483      Zr  0.69907495  0.81360260  0.09213608     2.10000
Zr484      Zr  0.81486766  0.81462048  0.08133958     1.78800
O485        O  0.62685048  0.81681738  0.08768883    -0.93200
O486        O  0.88516777  0.80297987  0.06966878    -0.41000
O487        O  0.75287819  0.80783088  0.05166912    -0.77700
O488        O  0.80833448  0.75259714  0.05234266    -0.96300
O489        O  0.74978192  0.69072953  0.06255322    -0.89600
O490        O  0.69016974  0.75191007  0.06211520    -0.92500
C491        C  0.84392674  0.83478113  0.16466644     1.01300
C492        C  0.68020577  0.81885845  0.18084098     1.14200
C493        C  0.82350668  0.68300555  0.18165717     1.05000
O494        O  0.88417449  0.69785848  0.09433837    -0.94600
O495        O  0.83700851  0.67789857  0.03674931    -0.90400
O496        O  0.79651599  0.70413023  0.99521363    -0.83500
C497        C  0.82684026  0.68373394  0.00492982     1.11600
O498        O  0.66237116  0.67781537  0.15537988    -0.96600
Zr499      Zr  0.69505693  0.69785503  0.10141712     1.88900
O500        O  0.69671454  0.69641951  0.00238777    -0.73300
O501        O  0.80559462  0.62695310  0.09001055    -0.52500
O502        O  0.70627058  0.62824191  0.11413556    -0.97200
O503        O  0.62314935  0.70777905  0.10060468    -0.54400
O504        O  0.67341618  0.66342159  0.04951409    -0.73800
C505        C  0.67609038  0.66885031  0.01653200     0.98600
O506        O  0.75622017  0.75981952  0.96165050    -0.62600
O507        O  0.70421883  0.88532657  0.09634693    -0.57400
O508        O  0.71014768  0.79825012  0.99387765    -0.94100
O509        O  0.68284761  0.83880098  0.03484237    -0.92500
O510        O  0.80797877  0.88612792  0.07809656    -0.92900
O511        O  0.83499354  0.84254028  0.02555980    -0.91700
C512        C  0.69001100  0.82884725  0.00308711     1.17400
H513        H  0.76264045  0.84570310  0.13444124     0.33300
H514        H  0.83006683  0.75182022  0.03592554     0.44200
H515        H  0.66536259  0.75173422  0.04940982     0.37700
H516        H  0.75627883  0.68144465  0.14877501     0.34200
H517        H  0.89833497  0.82828655  0.07546717     0.26000
H518        H  0.83224868  0.61687371  0.09653559     0.31900
H519        H  0.68221691  0.61452749  0.10546277     0.37800
H520        H  0.77994802  0.89059931  0.07120505     0.32300
H521        H  0.67677227  0.89512180  0.09259249     0.31200
H522        H  0.62021633  0.84502744  0.09133200     0.32900
H523        H  0.61567117  0.70933194  0.07564486     0.31800
H524        H  0.82458215  0.82385750  0.00786168     0.35800
H525        H  0.78500818  0.76542748  0.95918955     0.28600
H526        H  0.78534579  0.76860109  0.23343041     0.32800
H527        H  0.64403875  0.65616150  0.14883671     0.35600
H528        H  0.70968572  0.89106726  0.12124090     0.28200
H529        H  0.75178995  0.73480203  0.94878629     0.41100
H530        H  0.89138734  0.71682834  0.11299459     0.31200
H531        H  0.89386503  0.78470819  0.08828792     0.38800
H532        H  0.61925310  0.73492296  0.10964482     0.30600
H533        H  0.78834530  0.61999914  0.11001148     0.30700
H534        H  0.74830017  0.74052526  0.23005143     0.31000
Zr535      Zr  0.74286560  0.74739602  0.67981329     2.17500
O536        O  0.76020939  0.75820407  0.74103240    -0.51400
O537        O  0.69150779  0.70290996  0.70167868    -0.74600
O538        O  0.70535096  0.80097973  0.70721498    -0.81400
O539        O  0.83384409  0.68029823  0.66747884    -0.83100
O540        O  0.67577890  0.83776490  0.66506132    -0.78700
O541        O  0.79521870  0.70970966  0.70892543    -0.90400
O542        O  0.65746430  0.67905451  0.65516969    -0.76300
O543        O  0.68842615  0.75485172  0.64058011    -0.85800
O544        O  0.74506400  0.69159953  0.64174155    -0.85500
O545        O  0.75385704  0.80913285  0.65031265    -0.72300
O546        O  0.80575971  0.75037091  0.65028459    -0.84400
Zr547      Zr  0.76337298  0.76424138  0.54196148     2.26400
Zr548      Zr  0.69984425  0.81508907  0.60944551     2.06300
Zr549      Zr  0.80677124  0.69573402  0.61066902     2.10000
Zr550      Zr  0.69093478  0.69944261  0.60250860     1.78800
O551        O  0.87894463  0.68979665  0.60780929    -0.93200
O552        O  0.62042178  0.71367058  0.59432640    -0.41000
O553        O  0.75239431  0.70226539  0.57074213    -0.77700
O554        O  0.70014585  0.75935272  0.57097021    -0.96300
O555        O  0.76228872  0.81963869  0.58010285    -0.89600
O556        O  0.81812521  0.75646310  0.58076985    -0.92500
C557        C  0.66325672  0.68251645  0.68805963     1.01300
C558        C  0.82504423  0.68844542  0.69928934     1.14200
C559        C  0.68315659  0.82963884  0.69703801     1.05000
O560        O  0.62772071  0.82154488  0.60735798    -0.94600
O561        O  0.67595252  0.83699490  0.55274234    -0.90400
O562        O  0.71231877  0.80324413  0.51264122    -0.83500
C563        C  0.68411617  0.82715484  0.52112771     1.11600
O564        O  0.84591976  0.83225099  0.67504935    -0.96600
Zr565      Zr  0.81588606  0.81096049  0.62018764     1.88900
O566        O  0.81528384  0.80937018  0.52272101    -0.73300
O567        O  0.71194758  0.88594130  0.60969571    -0.52500
O568        O  0.80636124  0.88191125  0.62710289    -0.97200
O569        O  0.88730385  0.79814244  0.62342714    -0.54400
O570        O  0.84414886  0.83968400  0.56907568    -0.73800
C571        C  0.83996564  0.83388213  0.53639197     0.98600
O572        O  0.75018832  0.75859636  0.47938551    -0.62600
O573        O  0.79537234  0.62490513  0.61435643    -0.57400
O574        O  0.79654318  0.70869916  0.51378614    -0.94100
O575        O  0.82697005  0.67026832  0.55412754    -0.92500
O576        O  0.69999452  0.62807451  0.60214233    -0.92900
O577        O  0.66308301  0.66982520  0.54992634    -0.91700
C578        C  0.81836503  0.67918552  0.52248564     1.17400
H579        H  0.74324463  0.66723384  0.65465506     0.33300
H580        H  0.67823237  0.76045255  0.55472400     0.44200
H581        H  0.84302915  0.75531738  0.56813301     0.37700
H582        H  0.75417388  0.83103487  0.66649223     0.34200
H583        H  0.60683061  0.68810613  0.59794197     0.26000
H584        H  0.68506639  0.89794934  0.60882172     0.31900
H585        H  0.83179050  0.89390299  0.61957939     0.37800
H586        H  0.67566731  0.61743169  0.61321773     0.32300
H587        H  0.78288382  0.61777240  0.59178904     0.31200
H588        H  0.88438642  0.66130422  0.61103562     0.32900
H589        H  0.89540262  0.79012852  0.59958336     0.31800
H590        H  0.68219494  0.67667023  0.53123430     0.35800
H591        H  0.77649203  0.75867653  0.46770652     0.28600
H592        H  0.73518715  0.75467029  0.75432448     0.32800
H593        H  0.86305265  0.85500262  0.66908521     0.35600
H594        H  0.82227709  0.61301017  0.61323414     0.28200
H595        H  0.73937899  0.73174575  0.47556778     0.41100
H596        H  0.61773773  0.80167710  0.62408650     0.31200
H597        H  0.61280896  0.72968135  0.61495534     0.38800
H598        H  0.88965750  0.77368582  0.63738043     0.30600
H599        H  0.72172954  0.89196625  0.63349822     0.30700
H600        H  0.76673988  0.78659299  0.74328735     0.31000
Zr601      Zr  0.76238691  0.22991185  0.15856747     2.17500
O602        O  0.76327796  0.23860223  0.22178626    -0.51400
O603        O  0.80815444  0.17888549  0.17706777    -0.74600
O604        O  0.70799627  0.19534840  0.18771143    -0.81400
O605        O  0.82833218  0.32242989  0.14962776    -0.83100
O606        O  0.67015485  0.16405932  0.14729656    -0.78700
O607        O  0.79412463  0.28506761  0.18842882    -0.90400
O608        O  0.84198711  0.15158748  0.13208058    -0.76300
O609        O  0.75861127  0.17522926  0.11959020    -0.85800
O610        O  0.81905688  0.23468018  0.12145481    -0.85500
O611        O  0.69955351  0.23930768  0.12959365    -0.72300
O612        O  0.75627683  0.29260204  0.13027286    -0.84400
Zr613      Zr  0.74664544  0.25034525  0.02163334     2.26400
Zr614      Zr  0.69638305  0.18435718  0.09006828     2.06300
Zr615      Zr  0.81240956  0.29641329  0.09219346     2.10000
Zr616      Zr  0.81425610  0.18143814  0.08104306     1.78800
O617        O  0.81353795  0.36817456  0.08832079    -0.93200
O618        O  0.80334268  0.11087643  0.07350281    -0.41000
O619        O  0.80914928  0.24297663  0.05129558    -0.77700
O620        O  0.75264567  0.18789341  0.05115414    -0.96300
O621        O  0.69019440  0.24578511  0.05932389    -0.89600
O622        O  0.75150050  0.30504498  0.06071224    -0.92500
C623        C  0.83373252  0.15467868  0.16447950     1.01300
C624        C  0.81689697  0.31418747  0.18074715     1.14200
C625        C  0.67848351  0.17328654  0.17915724     1.05000
O626        O  0.69173377  0.11259072  0.09014639    -0.94600
O627        O  0.67910919  0.16022831  0.03241606    -0.90400
O628        O  0.70682761  0.20084669  0.99181257    -0.83500
C629        C  0.68614738  0.17076150  0.00085055     1.11600
O630        O  0.66434857  0.32709250  0.15083296    -0.96600
Zr631      Zr  0.69555162  0.30019066  0.09837529     1.88900
O632        O  0.70165596  0.30037822  0.99846540    -0.73300
O633        O  0.62443407  0.19036409  0.08478570    -0.52500
O634        O  0.62388963  0.28886485  0.09882532    -0.97200
O635        O  0.70710159  0.37030295  0.10854106    -0.54400
O636        O  0.67321554  0.33077384  0.04499512    -0.73800
C637        C  0.67855006  0.32641952  0.01207696     0.98600
O638        O  0.75886804  0.23044226  0.96125137    -0.62600
O639        O  0.88439909  0.29088955  0.09833981    -0.57400
O640        O  0.80105446  0.28607907  0.99342442    -0.94100
O641        O  0.83910788  0.31359653  0.03585062    -0.92500
O642        O  0.88600422  0.18996459  0.07564023    -0.92900
O643        O  0.84102470  0.15877267  0.02535908    -0.91700
C644        C  0.83107144  0.30646692  0.00372029     1.17400
H645        H  0.84355989  0.23371778  0.13463557     0.33300
H646        H  0.75261186  0.16630159  0.03471148     0.44200
H647        H  0.75199786  0.32979963  0.04828413     0.37700
H648        H  0.67732896  0.23973941  0.14554337     0.34200
H649        H  0.83008034  0.09884807  0.07597873     0.26000
H650        H  0.61435551  0.16333661  0.08897066     0.31900
H651        H  0.61563736  0.28948702  0.07402060     0.37800
H652        H  0.89767481  0.16471369  0.08369289     0.32300
H653        H  0.89336223  0.27687166  0.07700528     0.31200
H654        H  0.84200916  0.37529385  0.09039799     0.32900
H655        H  0.71710762  0.38060663  0.08604558     0.31800
H656        H  0.82327971  0.17057704  0.00756842     0.35800
H657        H  0.75602386  0.25471420  0.94710831     0.28600
H658        H  0.76276636  0.21174755  0.23188797     0.32800
H659        H  0.64276734  0.34466730  0.14250957     0.35600
H660        H  0.89438933  0.31816430  0.09553123     0.28200
H661        H  0.78741091  0.22325820  0.95985535     0.41100
H662        H  0.70931867  0.10397546  0.10941635     0.31200
H663        H  0.78887405  0.10267081  0.09479124     0.38800
H664        H  0.73046572  0.37123173  0.12428322     0.30600
H665        H  0.61611578  0.20556264  0.10566967     0.30700
H666        H  0.73722454  0.25047317  0.22783632     0.31000
Zr667      Zr  0.74086335  0.25171297  0.68057548     2.17500
O668        O  0.75422084  0.23290208  0.74094050    -0.51400
O669        O  0.69328912  0.30002382  0.70266050    -0.74600
O670        O  0.79189383  0.29184859  0.70840923    -0.81400
O671        O  0.67564363  0.16107080  0.67027600    -0.83100
O672        O  0.83257426  0.31660398  0.66650175    -0.78700
O673        O  0.70532963  0.19984297  0.71121072    -0.90400
O674        O  0.66494421  0.32921132  0.65567071    -0.76300
O675        O  0.74782222  0.30540363  0.64098726    -0.85800
O676        O  0.68468972  0.24777706  0.64241095    -0.85500
O677        O  0.80374791  0.24122483  0.65172598    -0.72300
O678        O  0.74512498  0.18896248  0.65192041    -0.84400
Zr679      Zr  0.75985910  0.22946334  0.54382204     2.26400
Zr680      Zr  0.80933877  0.29429312  0.61058324     2.06300
Zr681      Zr  0.69036952  0.18598564  0.61225105     2.10000
Zr682      Zr  0.69216800  0.30107414  0.60279534     1.78800
O683        O  0.68694975  0.11423079  0.61061113    -0.93200
O684        O  0.70350961  0.37187940  0.59774413    -0.41000
O685        O  0.69663604  0.23953320  0.57201308    -0.77700
O686        O  0.75336904  0.29251522  0.57218802    -0.96300
O687        O  0.81539471  0.23180490  0.58219217    -0.89600
O688        O  0.75229629  0.17527881  0.58285567    -0.92500
C689        C  0.66910930  0.32469331  0.68866316     1.01300
C690        C  0.68409458  0.17009976  0.70204498     1.14200
C691        C  0.82220599  0.31178199  0.69836078     1.05000
O692        O  0.81519893  0.36586449  0.61198269    -0.94600
O693        O  0.82943174  0.31879922  0.55355531    -0.90400
O694        O  0.79743158  0.28081031  0.51359828    -0.83500
C695        C  0.82005777  0.30994766  0.52197029     1.11600
O696        O  0.83275026  0.15647427  0.67858110    -0.96600
Zr697      Zr  0.80675888  0.17896089  0.62261784     1.88900
O698        O  0.80482371  0.17669952  0.52555822    -0.73300
O699        O  0.88101538  0.28380821  0.60787671    -0.52500
O700        O  0.87915359  0.18110418  0.62640009    -0.97200
O701        O  0.78897381  0.11013615  0.63246032    -0.54400
O702        O  0.83420231  0.14739893  0.57213344    -0.73800
C703        C  0.82865477  0.15149070  0.53940237     0.98600
O704        O  0.75671680  0.24210103  0.48113930    -0.62600
O705        O  0.61822146  0.19256471  0.61531496    -0.57400
O706        O  0.70403599  0.19763972  0.51506241    -0.94100
O707        O  0.66555991  0.16640335  0.55495540    -0.92500
O708        O  0.62079764  0.29303615  0.59416179    -0.92900
O709        O  0.66775803  0.32986188  0.54868184    -0.91700
C710        C  0.67444928  0.17575676  0.52340907     1.17400
H711        H  0.65985313  0.24922302  0.65509338     0.33300
H712        H  0.75393630  0.31407284  0.55579345     0.44200
H713        H  0.75166494  0.15034254  0.57056087     0.37700
H714        H  0.82548885  0.24141507  0.66821758     0.34200
H715        H  0.67751340  0.38418302  0.60339485     0.26000
H716        H  0.89265964  0.30945714  0.61493820     0.31900
H717        H  0.88788079  0.19461451  0.60484095     0.37800
H718        H  0.60852520  0.29901121  0.61707821     0.32300
H719        H  0.61124246  0.21021082  0.59566916     0.31200
H720        H  0.65992246  0.10779486  0.61914948     0.32900
H721        H  0.78636659  0.09835455  0.60889080     0.31800
H722        H  0.67871765  0.31262863  0.53007563     0.35800
H723        H  0.75601272  0.21590555  0.46960496     0.28600
H724        H  0.75083796  0.25719364  0.75509307     0.32800
H725        H  0.84856108  0.13248017  0.67328942     0.35600
H726        H  0.60793651  0.16638867  0.60817432     0.28200
H727        H  0.73019739  0.25394390  0.47680461     0.41100
H728        H  0.79311707  0.37540797  0.59710247     0.31200
H729        H  0.72071873  0.37865953  0.61784987     0.38800
H730        H  0.76143992  0.11102577  0.64162875     0.30600
H731        H  0.88691106  0.26598605  0.62763996     0.30700
H732        H  0.78301444  0.22667879  0.74197013     0.31000
O733        O  0.91269632  0.06729208  0.29426235    -0.75300
O734        O  0.95052057  0.03736468  0.25258743    -0.54300
C735        C  0.92216104  0.06038481  0.26238177     0.78400
O736        O  0.07051576  0.08137923  0.41046584    -0.59900
O737        O  0.03843826  0.04658084  0.45271485    -0.53000
C738        C  0.06388398  0.07247422  0.44246179     0.70400
O739        O  0.06331628  0.08815621  0.29444836    -0.74500
O740        O  0.03598777  0.04865077  0.25272274    -0.55100
C741        C  0.05678220  0.07854687  0.26253578     0.76400
O742        O  0.90758268  0.06349009  0.41017621    -0.59600
O743        O  0.94804281  0.03718263  0.45185890    -0.52800
C744        C  0.91763753  0.05746332  0.44202941     0.73000
Zr745      Zr  0.93194037  0.04865346  0.35237870     2.54700
O746        O  0.92257294  0.11991857  0.35395749    -0.80200
O747        O  0.86066932  0.03628242  0.34861051    -0.93600
Zr748      Zr  0.04758146  0.06542299  0.35251290     2.64700
O749        O  0.03097860  0.13523262  0.35669823    -0.98600
O750        O  0.11818616  0.08048831  0.34835469    -0.80600
O751        O  0.98975966  0.05802690  0.31828783    -0.84000
O752        O  0.98950488  0.05862378  0.38681922    -2.18700
O753        O  0.92949212  0.91399639  0.40917246    -0.67400
O754        O  0.95910572  0.95095117  0.45157129    -0.52000
C755        C  0.93638729  0.92268385  0.44113769     0.71400
O756        O  0.08070799  0.92622453  0.29539706    -0.60300
O757        O  0.04554437  0.95803825  0.25311579    -0.52300
C758        C  0.07182016  0.93298188  0.26342695     0.73200
O759        O  0.08611978  0.93376064  0.41077484    -0.71700
O760        O  0.04597819  0.96120106  0.45216908    -0.50400
C761        C  0.07545410  0.93952965  0.44253932     0.74600
O762        O  0.93426038  0.91085854  0.29356491    -0.67000
O763        O  0.96118767  0.95133774  0.25252493    -0.54200
C764        C  0.94025414  0.92150470  0.26185050     0.72900
Zr765      Zr  0.94911334  0.93395436  0.35178621     2.77500
O766        O  0.96228171  0.86335101  0.35515385    -0.97800
O767        O  0.87725396  0.92502171  0.35034950    -0.78600
Zr768      Zr  0.06492207  0.95079889  0.35272689     2.70100
O769        O  0.08263032  0.88112630  0.35554434    -0.79800
O770        O  0.13477039  0.96914208  0.34934999    -0.98900
Zr771      Zr  0.99903398  0.99943245  0.28495436     2.21500
Zr772      Zr  0.99788413  0.99981749  0.42010580     2.11100
O773        O  0.00679480  0.94117621  0.38637345    -2.47600
O774        O  0.00747330  0.94095853  0.31828482    -0.79600
O775        O  0.93912118  0.99107383  0.38635722    -0.71800
O776        O  0.05825165  0.00807661  0.31825646    -2.32800
O777        O  0.93955524  0.99121447  0.31791776    -2.29000
O778        O  0.05712498  0.00833070  0.38688630    -0.73600
H779        H  0.98630217  0.08142774  0.40177158     0.78400
H780        H  0.08123266  0.01104297  0.30339448     0.79500
H781        H  0.00978687  0.91826832  0.40108943     0.81700
H782        H  0.91672179  0.98808829  0.30284736     0.79300
H783        H  0.13171049  0.05517422  0.35346043     0.42400
H784        H  0.14019471  0.98268350  0.37179429     0.41300
H785        H  0.06086650  0.86881192  0.36908843     0.41000
H786        H  0.93703218  0.85077347  0.34783971     0.38900
H787        H  0.86752313  0.94466665  0.33326071     0.42100
H788        H  0.84808579  0.06133231  0.35621556     0.36900
H789        H  0.93748105  0.12983901  0.33348920     0.43000
H790        H  0.05707768  0.14866662  0.35811988     0.39400
H791        H  0.98099469  0.85792358  0.33574890     0.44300
H792        H  0.85507605  0.01750577  0.36774397     0.43000
H793        H  0.02059505  0.14218786  0.33331556     0.43200
H794        H  0.14929932  0.94376767  0.35111043     0.43500
O795        O  0.43242578  0.91374113  0.91806601    -0.75300
O796        O  0.38384868  0.95153190  0.89288709    -0.54300
C797        C  0.39596754  0.92313924  0.91254190     0.78400
O798        O  0.56290503  0.08011019  0.91614282    -0.59900
O799        O  0.61130466  0.04213671  0.89097987    -0.53000
C800        C  0.59941890  0.07141908  0.90969279     0.70400
O801        O  0.43028745  0.07548460  0.92263668    -0.74500
O802        O  0.38226140  0.04058919  0.89376847    -0.55100
C803        C  0.39390577  0.06746096  0.91516036     0.76400
O804        O  0.56499303  0.91418790  0.91587697    -0.59600
O805        O  0.61164720  0.95377614  0.89036659    -0.52800
C806        C  0.60102282  0.92490946  0.90992327     0.73000
Zr807      Zr  0.49810491  0.93719080  0.90306935     2.54700
O808        O  0.49798918  0.94220998  0.96649184    -0.80200
O809        O  0.50067068  0.86533121  0.90230182    -0.93600
Zr810      Zr  0.49691090  0.05266160  0.90837700     2.64700
O811        O  0.50150327  0.03812177  0.97044427    -0.98600
O812        O  0.49404925  0.12225176  0.92429103    -0.80600
O813        O  0.45783562  0.99463430  0.90717614    -0.84000
O814        O  0.53702499  0.99523410  0.90652607    -2.18700
O815        O  0.56172758  0.92106857  0.78377470    -0.67400
O816        O  0.60993322  0.95426705  0.81402223    -0.52000
C817        C  0.59805265  0.92887891  0.79127605     0.71400
O818        O  0.42940039  0.07984846  0.79128148    -0.60300
O819        O  0.38187123  0.04258850  0.81824479    -0.52300
C820        C  0.39319255  0.07057952  0.79795324     0.73200
O821        O  0.56214489  0.08137426  0.79042618    -0.71700
O822        O  0.61024381  0.04347724  0.81607681    -0.50400
C823        C  0.59855008  0.07172505  0.79616599     0.74600
O824        O  0.42920237  0.92262932  0.78393883    -0.67000
O825        O  0.38166427  0.95628554  0.81475961    -0.54200
C826        C  0.39295374  0.93099247  0.79167228     0.72900
Zr827      Zr  0.49589400  0.94259077  0.80029063     2.77500
O828        O  0.49586605  0.95018116  0.73706201    -0.97800
O829        O  0.49613256  0.87080857  0.79706168    -0.78600
Zr830      Zr  0.49597818  0.05840086  0.80545563     2.70100
O831        O  0.49521118  0.05632134  0.74193644    -0.79800
O832        O  0.49358573  0.13021950  0.80776958    -0.98900
Zr833      Zr  0.41912794  0.99740740  0.85500724     2.21500
Zr834      Zr  0.57406253  0.99811174  0.85336189     2.11100
O835        O  0.53516304  0.00056082  0.80137258    -2.47600
O836        O  0.45660562  0.00054073  0.80225061    -0.79600
O837        O  0.53578778  0.93919812  0.85107324    -0.71800
O838        O  0.45781384  0.05649734  0.85719104    -2.32800
O839        O  0.45817877  0.93862916  0.85213080    -2.29000
O840        O  0.53511476  0.05690069  0.85659666    -0.73600
H841        H  0.55442617  0.99450801  0.92660525     0.78400
H842        H  0.44121355  0.07980734  0.85800107     0.79500
H843        H  0.55197485  0.00165684  0.78095645     0.81700
H844        H  0.44158673  0.91544067  0.85120837     0.79300
H845        H  0.49373112  0.13632144  0.90167203     0.42400
H846        H  0.51706754  0.13797444  0.82181553     0.41300
H847        H  0.47529575  0.03583040  0.73609677     0.41000
H848        H  0.51787175  0.96870990  0.73209896     0.38900
H849        H  0.51199351  0.86239326  0.81753283     0.42100
H850        H  0.48089465  0.85738157  0.88446380     0.36900
H851        H  0.51196765  0.91813275  0.97449420     0.43000
H852        H  0.51061497  0.06314891  0.98117570     0.39400
H853        H  0.50545452  0.92444064  0.72802457     0.44300
H854        H  0.48885410  0.85711795  0.92481184     0.43000
H855        H  0.47351479  0.03544318  0.97817397     0.43200
H856        H  0.49996478  0.13875744  0.78371897     0.43500
O857        O  0.08050140  0.43058542  0.91190246    -0.75300
O858        O  0.04282939  0.38337785  0.88492569    -0.54300
C859        C  0.07109900  0.39462299  0.90528501     0.78400
O860        O  0.91855340  0.56112979  0.91860785    -0.59900
O861        O  0.95286979  0.60931565  0.88983507    -0.53000
C862        C  0.92612394  0.59729262  0.91141154     0.70400
O863        O  0.92542020  0.42978962  0.92174066    -0.74500
O864        O  0.95441926  0.38287251  0.88703452    -0.55100
C865        C  0.93151711  0.39390989  0.91211506     0.76400
O866        O  0.08485804  0.56251212  0.90811100    -0.59600
O867        O  0.04299838  0.60993653  0.88679676    -0.52800
C868        C  0.07362589  0.59847282  0.90422820     0.73000
Zr869      Zr  0.06002762  0.49680516  0.89653647     2.54700
O870        O  0.06277193  0.50028016  0.95998012    -0.80200
O871        O  0.13241562  0.49520456  0.89195380    -0.93600
Zr872      Zr  0.94370320  0.49625461  0.90457626     2.64700
O873        O  0.95729507  0.50113537  0.96688444    -0.98600
O874        O  0.87248228  0.49187753  0.91548959    -0.80600
O875        O  0.00204929  0.45737787  0.90123294    -0.84000
O876        O  0.00167997  0.53563116  0.90187383    -2.18700
O877        O  0.07948496  0.56215761  0.78531606    -0.67400
O878        O  0.04166568  0.61000485  0.81142215    -0.52000
C879        C  0.07070186  0.59833109  0.79200362     0.71400
O880        O  0.91232017  0.43304300  0.78545028    -0.60300
O881        O  0.95082512  0.38523609  0.81071694    -0.52300
C882        C  0.92227989  0.39704161  0.79093909     0.73200
O883        O  0.91263803  0.56404776  0.78630742    -0.71700
O884        O  0.95157632  0.61094150  0.81223978    -0.50400
C885        C  0.92286800  0.59994738  0.79218366     0.74600
O886        O  0.07551824  0.43135129  0.78074297    -0.67000
O887        O  0.03963590  0.38369065  0.80861483    -0.54200
C888        C  0.06723725  0.39526013  0.78781670     0.72900
Zr889      Zr  0.05101223  0.49711218  0.79404895     2.77500
O890        O  0.03292682  0.49848249  0.73256455    -0.97800
O891        O  0.12036870  0.49549833  0.77580021    -0.78600
Zr892      Zr  0.93440067  0.49818688  0.80178890     2.70100
O893        O  0.93092211  0.49859103  0.73830402    -0.79800
O894        O  0.86237470  0.49848983  0.80937183    -0.98900
Zr895      Zr  0.99702141  0.42031794  0.84831072     2.21500
Zr896      Zr  0.99689376  0.57406877  0.84976706     2.11100
O897        O  0.99292692  0.53664328  0.79694744    -2.47600
O898        O  0.99245056  0.45854267  0.79629479    -0.79600
O899        O  0.05611926  0.53544095  0.84551856    -0.71800
O900        O  0.93774919  0.45888457  0.85267243    -2.32800
O901        O  0.05662284  0.45847304  0.84512388    -2.29000
O902        O  0.93775829  0.53571183  0.85376618    -0.73600
H903        H  0.00326239  0.55235097  0.92228693     0.78400
H904        H  0.91440076  0.44237546  0.85397542     0.79500
H905        H  0.99170372  0.55363541  0.77675808     0.81700
H906        H  0.08003526  0.44191474  0.84420777     0.79300
H907        H  0.86023330  0.49225279  0.89199354     0.42400
H908        H  0.85775038  0.51554358  0.83002858     0.41300
H909        H  0.90207993  0.49844973  0.73300921     0.41000
H910        H  0.05848602  0.50252179  0.72023214     0.38900
H911        H  0.13556361  0.49413103  0.79791878     0.42100
H912        H  0.13802340  0.47864803  0.87117344     0.36900
H913        H  0.09128019  0.49652889  0.96565825     0.43000
H914        H  0.93071981  0.50409809  0.97777403     0.39400
H915        H  0.02552954  0.47087221  0.72703890     0.44300
H916        H  0.14159526  0.47917481  0.91198315     0.43000
H917        H  0.96620128  0.47436128  0.97367596     0.43200
H918        H  0.85190793  0.51396229  0.78949093     0.43500
C919        C  0.66829911  0.14389432  0.72957208    -0.05500
C920        C  0.66344008  0.10353320  0.72211423    -0.32900
C921        C  0.64353042  0.07881125  0.74539103     0.36300
C922        C  0.62830785  0.09422680  0.77671645    -0.05900
C923        C  0.63502553  0.13391406  0.78528940    -0.32800
C924        C  0.65540866  0.15869383  0.76216960     0.36200
H925        H  0.67371726  0.09141207  0.69748408     0.16600
O926        O  0.63678986  0.04022152  0.73626686    -0.60300
H927        H  0.62263844  0.14616354  0.80911429     0.16600
O928        O  0.65923513  0.19795515  0.77031058    -0.60400
H929        H  0.68421538  0.19981512  0.78399783     0.43600
H930        H  0.61036480  0.04017833  0.72471101     0.43500
C931        C  0.89314740  0.07705674  0.46882844    -0.05500
C932        C  0.91058301  0.08835588  0.50058180    -0.32900
C933        C  0.88973257  0.11212923  0.52417659     0.36300
C934        C  0.85087420  0.12503185  0.51601329    -0.05900
C935        C  0.83290216  0.11237021  0.48499719    -0.32800
C936        C  0.85340895  0.08805613  0.46174841     0.36200
H937        H  0.94104046  0.08020032  0.50652484     0.16600
O938        O  0.90816318  0.12368013  0.55448590    -0.60300
H939        H  0.80268811  0.12117641  0.47880696     0.16600
O940        O  0.83443652  0.07564854  0.43196259    -0.60400
H941        H  0.81913489  0.05196414  0.43899458     0.43600
H942        H  0.92156727  0.14890415  0.54877140     0.43500
C943        C  0.84832381  0.32931053  0.72491812    -0.05500
C944        C  0.88889895  0.33386066  0.71700032    -0.32900
C945        C  0.91421186  0.35338239  0.73998681     0.36300
C946        C  0.89928396  0.36797014  0.77164464    -0.05900
C947        C  0.85921743  0.36223670  0.78038906    -0.32800
C948        C  0.83365152  0.34273542  0.75730151     0.36200
H949        H  0.90083652  0.32341794  0.69234365     0.16600
O950        O  0.95284215  0.36038307  0.73029972    -0.60300
H951        H  0.84731805  0.37479556  0.80428220     0.16600
O952        O  0.79392071  0.34015617  0.76521803    -0.60400
H953        H  0.79182531  0.31816909  0.78214369     0.43600
H954        H  0.95224931  0.38610099  0.71798934     0.43500
C955        C  0.66990355  0.14583515  0.97308437    -0.14700
C956        C  0.64483220  0.16255280  0.94799493    -0.32900
C957        C  0.62408288  0.13834729  0.92478609     0.36300
C958        C  0.62893679  0.09707582  0.92624886    -0.05900
C959        C  0.65712511  0.08070234  0.94894132    -0.32800
C960        C  0.67721945  0.10488134  0.97275115     0.36200
H961        H  0.63947676  0.19411722  0.94781518     0.16600
O962        O  0.59715880  0.15498997  0.90225775    -0.60300
H963        H  0.66121282  0.04899849  0.95012041     0.16600
O964        O  0.70336513  0.08829299  0.99602373    -0.60400
H965        H  0.68668605  0.07897083  0.01569366     0.43600
H966        H  0.61239130  0.16017925  0.88058048     0.43500
C967        C  0.85905197  0.32300158  0.97753046    -0.05500
C968        C  0.89604819  0.33725170  0.98931646    -0.32900
C969        C  0.92143765  0.35768382  0.96708132     0.36300
C970        C  0.91045982  0.36395550  0.93228539    -0.05900
C971        C  0.87510203  0.34752944  0.91940860    -0.32800
C972        C  0.84946706  0.32677637  0.94171820     0.36200
H973        H  0.90490815  0.33396780  0.01634963     0.16600
O974        O  0.95569802  0.37395535  0.98020792    -0.60300
H975        H  0.86628040  0.35274341  0.89258949     0.16600
O976        O  0.81416762  0.31279468  0.92872190    -0.60400
H977        H  0.82084812  0.28698554  0.91788752     0.43600
H978        H  0.97537074  0.35209331  0.98041287     0.43500
C979        C  0.89845160  0.08138783  0.23588250    -0.05500
C980        C  0.86389113  0.10139695  0.24677268    -0.32900
C981        C  0.84226385  0.12466180  0.22382363     0.36300
C982        C  0.85500144  0.12861892  0.18895653    -0.05900
C983        C  0.88850418  0.10720300  0.17751338    -0.32800
C984        C  0.91028194  0.08381794  0.20066791     0.36200
H985        H  0.85351460  0.09954345  0.27350560     0.16600
O986        O  0.80900924  0.14372419  0.23613578    -0.60300
H987        H  0.89853523  0.10920653  0.15069535     0.16600
O988        O  0.94324362  0.06406170  0.18862599    -0.60400
H989        H  0.96504828  0.08375138  0.18905156     0.43600
H990        H  0.78662154  0.12539272  0.23152330     0.43500
C991        C  0.62738665  0.90735799  0.77066840    -0.05500
C992        C  0.63982319  0.86989022  0.78157293    -0.32900
C993        C  0.65882350  0.84422956  0.75815506     0.36300
C994        C  0.66572069  0.85632046  0.72346073    -0.05900
C995        C  0.65474761  0.89470644  0.71334067    -0.32800
C996        C  0.63519512  0.91985330  0.73651143     0.36200
H997        H  0.63260554  0.85965491  0.80759331     0.16600
O998        O  0.66856208  0.80687247  0.76894568    -0.60300
H999        H  0.66012407  0.90494498  0.68698150     0.16600
O1000       O  0.62200283  0.95591608  0.72507491    -0.60400
H1001       H  0.59599631  0.95067454  0.71372906     0.43600
H1002       H  0.64446942  0.79075182  0.76448868     0.43500
C1003       C  0.85126437  0.67181346  0.72643314    -0.05500
C1004       C  0.83463902  0.65483901  0.75641436    -0.32900
C1005       C  0.85854125  0.63343213  0.77959845     0.36300
C1006       C  0.89968004  0.62988719  0.77347981    -0.05900
C1007       C  0.91680873  0.64930757  0.74499924    -0.32800
C1008       C  0.89286292  0.67012946  0.72145485     0.36200
H1009       H  0.80279860  0.65616621  0.76078916     0.16600
O1010       O  0.84142374  0.61517351  0.80776406    -0.60300
H1011       H  0.94840204  0.64635666  0.73985607     0.16600
O1012       O  0.91018418  0.68752731  0.69296452    -0.60400
H1013       H  0.91696936  0.71465822  0.70068599     0.43600
H1014       H  0.82935966  0.59066270  0.79833437     0.43500
C1015       C  0.86603429  0.85645611  0.51301746    -0.05500
C1016       C  0.87657142  0.84006639  0.48075578    -0.32900
C1017       C  0.90132618  0.86041584  0.45801086     0.36300
C1018       C  0.91541551  0.89843043  0.46703743    -0.05900
C1019       C  0.90612556  0.91427219  0.49986044    -0.32800
C1020       C  0.88144783  0.89369440  0.52276491     0.36200
H1021       H  0.86583413  0.81113513  0.47316168     0.16600
O1022       O  0.91107717  0.84293370  0.42677713    -0.60300
H1023       H  0.91658733  0.94336431  0.50724155     0.16600
O1024       O  0.87167589  0.91084909  0.55410943    -0.60400
H1025       H  0.84671089  0.92565846  0.54960513     0.43600
H1026       H  0.93659026  0.82902635  0.43113881     0.43500
C1027       C  0.85266853  0.66650596  0.97784961    -0.05500
C1028       C  0.83577905  0.64638356  0.94949912    -0.32900
C1029       C  0.86002288  0.62556689  0.92611691     0.36300
C1030       C  0.90166279  0.62622311  0.93009563    -0.05900
C1031       C  0.91872205  0.64856803  0.95695098    -0.32800
C1032       C  0.89446629  0.66824176  0.98110494     0.36200
H1033       H  0.80372681  0.64490524  0.94664606     0.16600
O1034       O  0.84283812  0.60361753  0.90000856    -0.60300
H1035       H  0.95071331  0.64865876  0.96054934     0.16600
O1036       O  0.91179139  0.68890823  0.00795152    -0.60400
H1037       H  0.91934545  0.66872881  0.02547059     0.43600
H1038       H  0.83581512  0.57807126  0.91096800     0.43500
C1039       C  0.63176672  0.90320980  0.92882567    -0.05500
C1040       C  0.63953985  0.86373563  0.92017921    -0.32900
C1041       C  0.66113716  0.83963279  0.94301519     0.36300
C1042       C  0.67369182  0.85476162  0.97557252    -0.05900
C1043       C  0.66795650  0.89508020  0.98294097    -0.32800
C1044       C  0.64761104  0.91937270  0.95955225     0.36200
H1045       H  0.62721394  0.85113248  0.89649586     0.16600
O1046       O  0.66667219  0.80063477  0.93458284    -0.60300
H1047       H  0.67811121  0.90754758  0.00745598     0.16600
O1048       O  0.64027380  0.95800364  0.96834162    -0.60400
H1049       H  0.66423586  0.97264334  0.96065661     0.43600
H1050       H  0.69157153  0.79993718  0.92068447     0.43500
C1051       C  0.92004691  0.89812053  0.23474775    -0.05500
C1052       C  0.90731549  0.85979971  0.24297060    -0.32900
C1053       C  0.88310806  0.83868822  0.22017377     0.36300
C1054       C  0.87125221  0.85571852  0.18831940    -0.05900
C1055       C  0.88577185  0.89313570  0.17913113    -0.32800
C1056       C  0.90980816  0.91448850  0.20215347     0.36200
H1057       H  0.91540154  0.84634089  0.26761647     0.16600
O1058       O  0.87085919  0.80160314  0.22959524    -0.60300
H1059       H  0.87729535  0.90651734  0.15456471     0.16600
O1060       O  0.92178336  0.95175864  0.19299933    -0.60400
H1061       H  0.90091866  0.96972060  0.20225672     0.43600
H1062       H  0.88860141  0.78317809  0.21674144     0.43500
C1063       C  0.13130988  0.14031526  0.51655923    -0.05500
C1064       C  0.14601131  0.13334457  0.48289885    -0.32900
C1065       C  0.12497798  0.11030059  0.45922950     0.36300
C1066       C  0.08776545  0.09410065  0.46860016    -0.05900
C1067       C  0.07325341  0.10019747  0.50255338    -0.32800
C1068       C  0.09474120  0.12305213  0.52654947     0.36200
H1069       H  0.17440693  0.14537421  0.47481571     0.16600
O1070       O  0.14136603  0.10379567  0.42689870    -0.60300
H1071       H  0.04483262  0.08796191  0.51029904     0.16600
O1072       O  0.07953178  0.12841547  0.55947325    -0.60400
H1073       H  0.06420062  0.15342797  0.55834205     0.43600
H1074       H  0.15742866  0.07937017  0.42938442     0.43500
C1075       C  0.32510620  0.14008751  0.72933767    -0.05500
C1076       C  0.34519897  0.15824865  0.75706321    -0.32900
C1077       C  0.36486293  0.13542157  0.78187325     0.36300
C1078       C  0.36340474  0.09400141  0.77963260    -0.05900
C1079       C  0.34017727  0.07584555  0.75388913    -0.32800
C1080       C  0.32141051  0.09869670  0.72838991     0.36200
H1081       H  0.34761134  0.19012908  0.75835260     0.16600
O1082       O  0.38666014  0.15367925  0.80754515    -0.60300
H1083       H  0.33910060  0.04396273  0.75199816     0.16600
O1084       O  0.29977522  0.08046076  0.70261572    -0.60400
H1085       H  0.31971141  0.07098190  0.68541172     0.43600
H1086       H  0.41196564  0.16153304  0.79621037     0.43500
C1087       C  0.14594744  0.32389263  0.72850467    -0.05500
C1088       C  0.10483008  0.32209936  0.72207897    -0.32900
C1089       C  0.07811308  0.34284828  0.74321831     0.36300
C1090       C  0.09257441  0.36577296  0.77098335    -0.05900
C1091       C  0.13338621  0.36576478  0.77867005    -0.32800
C1092       C  0.16009587  0.34439531  0.75793776     0.36200
H1093       H  0.09361279  0.30607142  0.69961254     0.16600
O1094       O  0.03840345  0.34286819  0.73501460    -0.60300
H1095       H  0.14472866  0.38391663  0.79978853     0.16600
O1096       O  0.20012582  0.34690272  0.76459339    -0.60400
H1097       H  0.20504831  0.32817078  0.78397364     0.43600
H1098       H  0.03460558  0.36599682  0.71954013     0.43500
C1099       C  0.14481348  0.66960874  0.72814892    -0.05500
C1100       C  0.16101679  0.65161887  0.75790671    -0.32900
C1101       C  0.13653365  0.63007261  0.78056907     0.36300
C1102       C  0.09527103  0.62790566  0.77433297    -0.05900
C1103       C  0.07873400  0.64864646  0.74636326    -0.32800
C1104       C  0.10315660  0.66919246  0.72321671     0.36200
H1105       H  0.19286617  0.65209417  0.76234125     0.16600
O1106       O  0.15321567  0.61024062  0.80812430    -0.60300
H1107       H  0.04708527  0.64677007  0.74112315     0.16600
O1108       O  0.08613323  0.68742309  0.69496379    -0.60400
H1109       H  0.08144943  0.71506636  0.70252588     0.43600
H1110       H  0.16277331  0.58483990  0.79823095     0.43500
C1111       C  0.09840597  0.91809274  0.46916178    -0.05500
C1112       C  0.13555490  0.90210631  0.45979913    -0.32900
C1113       C  0.15603822  0.87723635  0.48234388     0.36300
C1114       C  0.13959220  0.86807737  0.51510888    -0.05900
C1115       C  0.10336723  0.88540543  0.52523477    -0.32800
C1116       C  0.08278824  0.91035714  0.50258808     0.36200
H1117       H  0.14870729  0.90834466  0.43457804     0.16600
O1118       O  0.19269265  0.86307912  0.47249927    -0.60300
H1119       H  0.09046149  0.87890403  0.55049570     0.16600
O1120       O  0.04660206  0.92524115  0.51278790    -0.60400
H1121       H  0.05278414  0.95037544  0.52496364     0.43600
H1122       H  0.18713199  0.84095875  0.45619682     0.43500
C1123       C  0.36292536  0.90905731  0.77210372    -0.05500
C1124       C  0.35488713  0.87002159  0.78173879    -0.32900
C1125       C  0.33534047  0.84445256  0.75869729     0.36300
C1126       C  0.32350765  0.85807548  0.72552863    -0.05900
C1127       C  0.32989155  0.89788592  0.71679828    -0.32800
C1128       C  0.34955425  0.92330959  0.73982514     0.36200
H1129       H  0.36609513  0.85864452  0.80627447     0.16600
O1130       O  0.33041155  0.80568178  0.76795290    -0.60300
H1131       H  0.32094445  0.90903269  0.69148757     0.16600
O1132       O  0.35875205  0.96093087  0.72939148    -0.60400
H1133       H  0.33299354  0.97523966  0.72855832     0.43600
H1134       H  0.35577690  0.79245286  0.76159593     0.43500
C1135       C  0.14441760  0.66651504  0.97319898    -0.05500
C1136       C  0.10275360  0.66846500  0.97534298    -0.32900
C1137       C  0.07901110  0.64928559  0.95064703     0.36300
C1138       C  0.09696757  0.62766938  0.92352540    -0.05900
C1139       C  0.13856762  0.62721380  0.92036355    -0.32800
C1140       C  0.16235655  0.64662701  0.94490886     0.36200
H1141       H  0.08859192  0.68389540  0.99685367     0.16600
O1142       O  0.03843546  0.64934483  0.95471882    -0.60300
H1143       H  0.15262958  0.60993703  0.89990754     0.16600
O1144       O  0.20299500  0.64384338  0.94224307    -0.60400
H1145       H  0.21053431  0.62100949  0.95700454     0.43600
H1146       H  0.03258850  0.62636387  0.96985348     0.43500
C1147       C  0.36686711  0.89939220  0.93150756    -0.05500
C1148       C  0.36320322  0.85913468  0.92341971    -0.32900
C1149       C  0.34394100  0.83337844  0.94641918     0.36300
C1150       C  0.32909634  0.84777593  0.97844561    -0.05900
C1151       C  0.33166172  0.88845805  0.98574339    -0.32800
C1152       C  0.34999497  0.91423245  0.96235330     0.36200
H1153       H  0.37692133  0.84737793  0.89996295     0.16600
O1154       O  0.34157112  0.79403778  0.93811513    -0.60300
H1155       H  0.32001617  0.90026792  0.01001787     0.16600
O1156       O  0.35417351  0.95328439  0.97118285    -0.60400
H1157       H  0.33073865  0.96666182  0.96079692     0.43600
H1158       H  0.36633454  0.78208478  0.94745213     0.43500
C1159       C  0.13234911  0.85934941  0.18967893    -0.05500
C1160       C  0.15031023  0.86897945  0.22151064    -0.32900
C1161       C  0.13152001  0.89407506  0.24500104     0.36300
C1162       C  0.09345800  0.90946403  0.23725148    -0.05900
C1163       C  0.07557261  0.90033863  0.20510883    -0.32800
C1164       C  0.09480967  0.87544213  0.18127823     0.36200
H1165       H  0.17957453  0.85763442  0.22801001     0.16600
O1166       O  0.15090860  0.90350259  0.27542845    -0.60300
H1167       H  0.04628840  0.91172707  0.19879852     0.16600
O1168       O  0.07644180  0.86663521  0.15022915    -0.60400
H1169       H  0.06266198  0.84119119  0.15425567     0.43600
H1170       H  0.16492595  0.92860874  0.27049185     0.43500
C1171       C  0.14363508  0.32607663  0.97169187    -0.05500
C1172       C  0.16088383  0.34595503  0.94353553    -0.32900
C1173       C  0.13691348  0.36588515  0.91960197     0.36300
C1174       C  0.09522204  0.36498198  0.92316605    -0.05900
C1175       C  0.07784980  0.34170998  0.94912747    -0.32800
C1176       C  0.10189137  0.32258642  0.97370328     0.36200
H1177       H  0.19296390  0.34827936  0.94147261     0.16600
O1178       O  0.15448262  0.38869990  0.89442555    -0.60300
H1179       H  0.04577413  0.34082500  0.95196427     0.16600
O1180       O  0.08450866  0.30085437  0.99974160    -0.60400
H1181       H  0.07298561  0.32048051  0.01616348     0.43600
H1182       H  0.15375216  0.37245974  0.87284734     0.43500
C1183       C  0.31952158  0.14009685  0.97722529    -0.05500
C1184       C  0.34195666  0.15694561  0.95034353    -0.32900
C1185       C  0.36463235  0.13298772  0.92833874     0.36300
C1186       C  0.36399929  0.09176602  0.93258246    -0.05900
C1187       C  0.33888691  0.07471895  0.95743351    -0.32800
C1188       C  0.31694463  0.09875346  0.98008544     0.36200
H1189       H  0.34408623  0.18875355  0.94795424     0.16600
O1190       O  0.38931823  0.15013348  0.90424948    -0.60300
H1191       H  0.33832860  0.04298398  0.96078985     0.16600
O1192       O  0.29354740  0.08176611  0.00524954    -0.60400
H1193       H  0.31207090  0.07440997  0.02432012     0.43600
H1194       H  0.37302773  0.15264516  0.88278747     0.43500
C1195       C  0.12222889  0.14494415  0.18692772    -0.05500
C1196       C  0.11354765  0.16154523  0.21958253    -0.32900
C1197       C  0.09050173  0.14118745  0.24377083     0.36300
C1198       C  0.07604272  0.10310256  0.23564237    -0.05900
C1199       C  0.08279128  0.08746643  0.20216844    -0.32800
C1200       C  0.10562606  0.10807425  0.17784174     0.36200
H1201       H  0.12477430  0.19049567  0.22655001     0.16600
O1202       O  0.08161605  0.15920432  0.27498801    -0.60300
H1203       H  0.07162763  0.05851694  0.19518410     0.16600
O1204       O  0.11231970  0.09132982  0.14570311    -0.60400
H1205       H  0.13834887  0.07766861  0.14777037     0.43600
H1206       H  0.10675995  0.15902838  0.28856003     0.43500
C1207       C  0.17516737  0.34846959  0.49776111    -0.05500
C1208       C  0.14701486  0.33709790  0.47267568    -0.32900
C1209       C  0.13555423  0.36325129  0.44615189     0.36300
C1210       C  0.15290107  0.40108672  0.44425556    -0.05900
C1211       C  0.18162694  0.41196452  0.46909201    -0.32800
C1212       C  0.19242836  0.38619449  0.49590332     0.36200
H1213       H  0.13346623  0.30813873  0.47397861     0.16600
O1214       O  0.10669299  0.35212236  0.42276787    -0.60300
H1215       H  0.19582350  0.44060432  0.46758333     0.16600
O1216       O  0.22135936  0.39735090  0.51918952    -0.60400
H1217       H  0.20740626  0.41361666  0.53696510     0.43600
H1218       H  0.11900834  0.33118826  0.40814362     0.43500
C1219       C  0.13542717  0.59723601  0.26022258    -0.05500
C1220       C  0.17581202  0.60487087  0.25427053    -0.32900
C1221       C  0.18769074  0.63042429  0.22776636     0.36300
C1222       C  0.15904187  0.64834348  0.20614156    -0.05900
C1223       C  0.11851170  0.64012298  0.21151154    -0.32800
C1224       C  0.10654751  0.61529561  0.23888298     0.36200
H1225       H  0.19825076  0.59099115  0.27047165     0.16600
O1226       O  0.22751622  0.63737612  0.22293796    -0.60300
H1227       H  0.09616623  0.65374781  0.19506420     0.16600
O1228       O  0.06680004  0.60873729  0.24448326    -0.60400
H1229       H  0.05864771  0.62892076  0.26189603     0.43600
H1230       H  0.23632159  0.61734666  0.20562752     0.43500
C1231       C  0.13656823  0.60085735  0.44351753    -0.05500
C1232       C  0.17673134  0.60913193  0.44989196    -0.32900
C1233       C  0.18780922  0.63623039  0.47563189     0.36300
C1234       C  0.15859689  0.65480893  0.49633203    -0.05900
C1235       C  0.11824554  0.64628571  0.49037414    -0.32800
C1236       C  0.10707745  0.61986840  0.46366043     0.36200
H1237       H  0.19963937  0.59452780  0.43464004     0.16600
O1238       O  0.22748922  0.64307340  0.48150300    -0.60300
H1239       H  0.09548044  0.66059686  0.50597690     0.16600
O1240       O  0.06752941  0.61351903  0.45679903    -0.60400
H1241       H  0.05778595  0.59683983  0.47621619     0.43600
H1242       H  0.23570247  0.66181094  0.46302491     0.43500
C1243       C  0.15959090  0.34722696  0.20477472    -0.05500
C1244       C  0.13556705  0.33508474  0.23268389    -0.32900
C1245       C  0.12727767  0.36101434  0.26044721     0.36300
C1246       C  0.14428283  0.39906510  0.26090836    -0.05900
C1247       C  0.16910018  0.41052328  0.23325033    -0.32800
C1248       C  0.17601585  0.38532900  0.20502070     0.36200
H1249       H  0.12306016  0.30562683  0.23281376     0.16600
O1250       O  0.10180854  0.34946339  0.28648869    -0.60300
H1251       H  0.18295521  0.43938587  0.23345025     0.16600
O1252       O  0.20061541  0.39744952  0.17857257    -0.60400
H1253       H  0.18318998  0.41238285  0.16238917     0.43600
H1254       H  0.11622208  0.32868701  0.29962463     0.43500
C1255       C  0.34084891  0.83225787  0.49267449    -0.05500
C1256       C  0.36347158  0.86686643  0.49718362    -0.32900
C1257       C  0.38957419  0.87984370  0.47107602     0.36300
C1258       C  0.39382429  0.85789982  0.44006554    -0.05900
C1259       C  0.37058812  0.82409600  0.43503576    -0.32800
C1260       C  0.34423663  0.81122892  0.46085019     0.36200
H1261       H  0.36120293  0.88382304  0.52113549     0.16600
O1262       O  0.41176017  0.91325091  0.47648842    -0.60300
H1263       H  0.37399004  0.80674334  0.41139363     0.16600
O1264       O  0.32402056  0.77660098  0.45551990    -0.60400
H1265       H  0.30236577  0.78326540  0.43894312     0.43600
H1266       H  0.39353227  0.93554043  0.47131277     0.43500
C1267       C  0.65324752  0.83231024  0.20922345    -0.05500
C1268       C  0.62873336  0.86552112  0.20407734    -0.32900
C1269       C  0.60224658  0.87812260  0.23006583     0.36300
C1270       C  0.59952834  0.85721180  0.26165441    -0.05900
C1271       C  0.62415963  0.82440073  0.26706396    -0.32800
C1272       C  0.65084399  0.81185262  0.24127415     0.36200
H1273       H  0.62997103  0.88174153  0.17976850     0.16600
O1274       O  0.57823631  0.91015155  0.22395607    -0.60300
H1275       H  0.62167822  0.80758894  0.29099463     0.16600
O1276       O  0.67235121  0.77797835  0.24679970    -0.60400
H1277       H  0.69288643  0.78521186  0.26427021     0.43600
H1278       H  0.59160996  0.93260246  0.23574101     0.43500
C1279       C  0.60207726  0.86052080  0.43956164    -0.05500
C1280       C  0.60308959  0.88232263  0.47081747    -0.32900
C1281       C  0.63034369  0.87293258  0.49733003     0.36300
C1282       C  0.65771007  0.84154785  0.49259674    -0.05900
C1283       C  0.65731611  0.82080892  0.46069503    -0.32800
C1284       C  0.62945691  0.82951581  0.43475378     0.36200
H1285       H  0.58181057  0.90594055  0.47504617     0.16600
O1286       O  0.62894048  0.89381365  0.52805128    -0.60300
H1287       H  0.67734256  0.79618670  0.45635243     0.16600
O1288       O  0.62812951  0.80638779  0.40531451    -0.60400
H1289       H  0.61035417  0.78409017  0.41136066     0.43600
H1290       H  0.65002254  0.91410284  0.52596243     0.43500
C1291       C  0.39128889  0.85883439  0.26253280    -0.05500
C1292       C  0.36542246  0.82726620  0.26875158    -0.32900
C1293       C  0.33757962  0.81545446  0.24366163     0.36300
C1294       C  0.33550404  0.83484934  0.21102589    -0.05900
C1295       C  0.36087707  0.86727647  0.20523574    -0.32800
C1296       C  0.38831086  0.87945991  0.23076895     0.36200
H1297       H  0.36765221  0.81083856  0.29291315     0.16600
O1298       O  0.31431834  0.78326587  0.25068806    -0.60300
H1299       H  0.35990199  0.88293788  0.18063471     0.16600
O1300       O  0.41303373  0.91068235  0.22400859    -0.60400
H1301       H  0.39791861  0.93443466  0.23144531     0.43600
H1302       H  0.29200706  0.79363364  0.26501047     0.43500
C1303       C  0.85595922  0.60004855  0.44049105    -0.05500
C1304       C  0.87648184  0.60063712  0.47236732    -0.32900
C1305       C  0.86538905  0.62678719  0.49903567     0.36300
C1306       C  0.83336859  0.65327200  0.49397668    -0.05900
C1307       C  0.81424701  0.65390394  0.46128648    -0.32800
C1308       C  0.82517442  0.62755045  0.43475875     0.36200
H1309       H  0.90034881  0.57972932  0.47697922     0.16600
O1310       O  0.88554762  0.62549370  0.53013876    -0.60300
H1311       H  0.78959441  0.67384585  0.45657494     0.16600
O1312       O  0.80386939  0.62708386  0.40416949    -0.60400
H1313       H  0.81177793  0.65138361  0.39157937     0.43600
H1314       H  0.90856384  0.64342522  0.52706755     0.43500
C1315       C  0.85300444  0.39456935  0.26217146    -0.05500
C1316       C  0.81802716  0.37255374  0.26566564    -0.32900
C1317       C  0.80639161  0.34575152  0.23980313     0.36300
C1318       C  0.82992668  0.34059691  0.20955432    -0.05900
C1319       C  0.86541455  0.36231257  0.20637604    -0.32800
C1320       C  0.87694038  0.38922043  0.23237718     0.36200
H1321       H  0.79896965  0.37710212  0.28816177     0.16600
O1322       O  0.77051594  0.32691352  0.24326045    -0.60300
H1323       H  0.88409195  0.35874064  0.18351565     0.16600
O1324       O  0.91155145  0.41016913  0.22852802    -0.60400
H1325       H  0.90485174  0.43210443  0.21246360     0.43600
H1326       H  0.77457471  0.30717857  0.26200435     0.43500
C1327       C  0.85174335  0.39293537  0.44121064    -0.05500
C1328       C  0.87553158  0.38964419  0.47123006    -0.32900
C1329       C  0.86655013  0.36195605  0.49728670     0.36300
C1330       C  0.83335061  0.33674150  0.49352166    -0.05900
C1331       C  0.81015840  0.33967356  0.46304153    -0.32800
C1332       C  0.81875759  0.36773167  0.43739166     0.36200
H1333       H  0.90081342  0.40906895  0.47467667     0.16600
O1334       O  0.89008671  0.36027394  0.52650393    -0.60300
H1335       H  0.78408267  0.32130247  0.45965933     0.16600
O1336       O  0.79405288  0.37104368  0.40903574    -0.60400
H1337       H  0.77306748  0.39000037  0.41629170     0.43600
H1338       H  0.91164876  0.34138325  0.52056513     0.43500
C1339       C  0.85708589  0.60138976  0.26334441    -0.05500
C1340       C  0.87847903  0.60215761  0.23188197    -0.32900
C1341       C  0.86849464  0.62880491  0.20528013     0.36300
C1342       C  0.83733910  0.65638001  0.21022505    -0.05900
C1343       C  0.81694083  0.65640553  0.24238258    -0.32800
C1344       C  0.82624979  0.62902723  0.26855377     0.36200
H1345       H  0.90214830  0.58095281  0.22744924     0.16600
O1346       O  0.88933774  0.62739017  0.17451755    -0.60300
H1347       H  0.79237884  0.67657410  0.24681404     0.16600
O1348       O  0.80324113  0.62766524  0.29814147    -0.60400
H1349       H  0.81165956  0.65062253  0.31245252     0.43600
H1350       H  0.87703094  0.60565390  0.16089106     0.43500
C1351       C  0.64831241  0.16194952  0.49452030    -0.05500
C1352       C  0.64705839  0.18357727  0.46319702    -0.32900
C1353       C  0.62055192  0.17355457  0.43645231     0.36300
C1354       C  0.59510442  0.14088320  0.44024590    -0.05900
C1355       C  0.59722881  0.11833880  0.47090416    -0.32800
C1356       C  0.62360404  0.12851575  0.49784911     0.36200
H1357       H  0.66570309  0.20933616  0.45981361     0.16600
O1358       O  0.61903343  0.19653553  0.40704846    -0.60300
H1359       H  0.57783347  0.09310350  0.47413908     0.16600
O1360       O  0.62478221  0.10565846  0.52731757    -0.60400
H1361       H  0.64507549  0.08507487  0.52239701     0.43600
H1362       H  0.59644169  0.21493026  0.41089927     0.43500
C1363       C  0.38809115  0.13627840  0.26267522    -0.05500
C1364       C  0.36187734  0.16770296  0.26905169    -0.32900
C1365       C  0.33472054  0.18005454  0.24354596     0.36300
C1366       C  0.33394682  0.16148089  0.21036492    -0.05900
C1367       C  0.35933847  0.12891748  0.20463447    -0.32800
C1368       C  0.38591782  0.11614066  0.23052633     0.36200
H1369       H  0.36328120  0.18353893  0.29365443     0.16600
O1370       O  0.31062986  0.21169539  0.25089800    -0.60300
H1371       H  0.35904114  0.11355968  0.17978507     0.16600
O1372       O  0.41075444  0.08487120  0.22367018    -0.60400
H1373       H  0.39939287  0.06235088  0.23677584     0.43600
H1374       H  0.28838713  0.20070673  0.26482952     0.43500
C1375       C  0.38702017  0.12903807  0.44055986    -0.05500
C1376       C  0.38659247  0.10737148  0.47182385    -0.32900
C1377       C  0.35950184  0.11661163  0.49868245     0.36300
C1378       C  0.33220742  0.14809255  0.49454962    -0.05900
C1379       C  0.33159609  0.16820521  0.46240286    -0.32800
C1380       C  0.35890803  0.15942068  0.43599444     0.36200
H1381       H  0.40817193  0.08400253  0.47579426     0.16600
O1382       O  0.36089751  0.09546883  0.52912937    -0.60300
H1383       H  0.31130570  0.19258983  0.45818977     0.16600
O1384       O  0.35900163  0.18202676  0.40633413    -0.60400
H1385       H  0.37956133  0.20249130  0.41042916     0.43600
H1386       H  0.34305822  0.07259615  0.52520678     0.43500
C1387       C  0.65151113  0.15943405  0.20787230    -0.05500
C1388       C  0.62466691  0.12815384  0.20219053    -0.32900
C1389       C  0.59750784  0.11655528  0.22826144     0.36300
C1390       C  0.59656431  0.13635425  0.26072700    -0.05900
C1391       C  0.62358857  0.16709311  0.26658775    -0.32800
C1392       C  0.65090493  0.17846346  0.24089799     0.36200
H1393       H  0.62442781  0.11277788  0.17735189     0.16600
O1394       O  0.57207841  0.08571448  0.22190938    -0.60300
H1395       H  0.62278459  0.18326556  0.29104206     0.16600
O1396       O  0.67522927  0.20992940  0.24786610    -0.60400
H1397       H  0.69632143  0.19937829  0.26339188     0.43600
H1398       H  0.55186095  0.09614626  0.20546198     0.43500
C1399       C  0.65627120  0.35387046  0.98908620    -0.05500
C1400       C  0.64299656  0.38984766  0.00335987    -0.32900
C1401       C  0.61807947  0.41485797  0.98456709     0.36300
C1402       C  0.60595515  0.40445719  0.95066516    -0.05900
C1403       C  0.62034342  0.36949352  0.93546154    -0.32800
C1404       C  0.64554216  0.34421751  0.95439312     0.36200
H1405       H  0.65094264  0.39822906  0.02978041     0.16600
O1406       O  0.60312681  0.44801147  0.00058361    -0.60300
H1407       H  0.61073178  0.36109447  0.90948702     0.16600
O1408       O  0.65797684  0.30956900  0.93927445    -0.60400
H1409       H  0.63760894  0.28976477  0.94579098     0.43600
H1410       H  0.62244240  0.46924296  0.99526185     0.43500
C1411       C  0.34105627  0.63796563  0.99333502    -0.05500
C1412       C  0.35808425  0.65139204  0.96201367    -0.32900
C1413       C  0.38414675  0.62713705  0.94284471     0.36300
C1414       C  0.39342752  0.58901151  0.95496392    -0.05900
C1415       C  0.37441986  0.57478483  0.98495116    -0.32800
C1416       C  0.34842467  0.59876959  0.00403132     0.36200
H1417       H  0.35252419  0.68124507  0.95316528     0.16600
O1418       O  0.40165072  0.64144605  0.91315194    -0.60300
H1419       H  0.38091750  0.54531442  0.99433887     0.16600
O1420       O  0.33006026  0.58347625  0.03299154    -0.60400
H1421       H  0.35052370  0.58388599  0.05165732     0.43600
H1422       H  0.38367185  0.63347794  0.89385617     0.43500
C1423       C  0.60225251  0.59201137  0.95463086    -0.05500
C1424       C  0.62179831  0.57765745  0.98432628    -0.32900
C1425       C  0.64683334  0.60200256  0.00394106     0.36300
C1426       C  0.65322795  0.64152249  0.99377494    -0.05900
C1427       C  0.63542685  0.65522799  0.96282587    -0.32800
C1428       C  0.60979489  0.63080898  0.94343647     0.36200
H1429       H  0.61629689  0.54780285  0.99317913     0.16600
O1430       O  0.66500292  0.58678702  0.03303797    -0.60300
H1431       H  0.64002473  0.68539552  0.95446179     0.16600
O1432       O  0.59188016  0.64511574  0.91387845    -0.60400
H1433       H  0.56859188  0.66048506  0.92224883     0.43600
H1434       H  0.64429728  0.58718235  0.05150113     0.43500
C1435       C  0.39883057  0.40031924  0.95395938    -0.05500
C1436       C  0.38527538  0.36485383  0.93915725    -0.32900
C1437       C  0.35995460  0.33975925  0.95810091     0.36300
C1438       C  0.34861561  0.34982708  0.99256779    -0.05900
C1439       C  0.36189033  0.38580335  0.00675221    -0.32800
C1440       C  0.38635541  0.41097320  0.98771205     0.36200
H1441       H  0.39499442  0.35631853  0.91323617     0.16600
O1442       O  0.34738675  0.30520406  0.94300570    -0.60300
H1443       H  0.35345298  0.39455299  0.03296960     0.16600
O1444       O  0.39961786  0.44521262  0.00297337    -0.60400
H1445       H  0.37827349  0.46488927  0.99872607     0.43600
H1446       H  0.36753874  0.28518722  0.94971982     0.43500
C1447       C  0.58989752  0.60758709  0.75164462    -0.05500
C1448       C  0.57533982  0.62252506  0.72002090    -0.32900
C1449       C  0.59797605  0.64844746  0.69996341     0.36300
C1450       C  0.63619463  0.66014108  0.71140806    -0.05900
C1451       C  0.64971434  0.64708294  0.74420627    -0.32800
C1452       C  0.62700012  0.62070197  0.76414384     0.36200
H1453       H  0.54683623  0.61263266  0.71007300     0.16600
O1454       O  0.58297271  0.66081515  0.66851678    -0.60300
H1455       H  0.67891043  0.65556280  0.75354888     0.16600
O1456       O  0.64243331  0.60594346  0.79457025    -0.60400
H1457       H  0.62954348  0.62142244  0.81346584     0.43600
H1458       H  0.56905861  0.68600978  0.67366892     0.43500
C1459       C  0.59617358  0.40247217  0.75052127    -0.05500
C1460       C  0.63089991  0.38656110  0.76514718    -0.32900
C1461       C  0.65452475  0.35999085  0.74592709     0.36300
C1462       C  0.64368594  0.34972178  0.71140850    -0.05900
C1463       C  0.60827070  0.36518682  0.69743843    -0.32800
C1464       C  0.58465564  0.39117039  0.71666945     0.36200
H1465       H  0.63998056  0.39529388  0.79118174     0.16600
O1466       O  0.68910207  0.34604272  0.76040984    -0.60300
H1467       H  0.59894488  0.35753981  0.67119357     0.16600
O1468       O  0.55118824  0.40694327  0.70155841    -0.60400
H1469       H  0.53004492  0.38696547  0.70508919     0.43600
H1470       H  0.68106264  0.32278489  0.77438099     0.43500
C1471       C  0.40752194  0.39321138  0.75379929    -0.05500
C1472       C  0.42019164  0.38045943  0.72087620    -0.32900
C1473       C  0.39741614  0.35429720  0.70119043     0.36300
C1474       C  0.36075528  0.34011456  0.71423032    -0.05900
C1475       C  0.34912645  0.35112820  0.74829070    -0.32800
C1476       C  0.37217288  0.37782118  0.76796339     0.36200
H1477       H  0.44736844  0.39215802  0.70973538     0.16600
O1478       O  0.41087213  0.34391308  0.66861322    -0.60300
H1479       H  0.32139869  0.34041251  0.75910373     0.16600
O1480       O  0.35976909  0.38909672  0.80062488    -0.60400
H1481       H  0.34068514  0.41100382  0.79669345     0.43600
H1482       H  0.42781134  0.32029402  0.67233605     0.43500
C1483       C  0.39997261  0.59899205  0.74861517    -0.05500
C1484       C  0.36396998  0.61252856  0.76292247    -0.32900
C1485       C  0.34003412  0.63939177  0.74440599     0.36300
C1486       C  0.35224454  0.65278817  0.71118285    -0.05900
C1487       C  0.38898668  0.64000738  0.69777683    -0.32800
C1488       C  0.41262569  0.61340539  0.71610545     0.36200
H1489       H  0.35412892  0.60167035  0.78804902     0.16600
O1490       O  0.30442200  0.65137050  0.75847195    -0.60300
H1491       H  0.39921115  0.65001903  0.67247628     0.16600
O1492       O  0.44733642  0.60003487  0.70127270    -0.60400
H1493       H  0.46685731  0.62160191  0.70480136     0.43600
H1494       H  0.28603816  0.62881391  0.75506172     0.43500
loop_ 
_geom_bond_atom_site_label_1 
_geom_bond_atom_site_label_2 
_geom_bond_distance 
_geom_bond_site_symmetry_2 
_ccdc_geom_bond_type 
N1            C6   1.352       .  A
N1            C5   1.349       .  A
N1           H33   1.036       .  S
N2            C9   1.354       .  A
N2           C10   1.355       .  A
N3            C8   1.350       .  A
N3            C7   1.352       .  A
N3           H34   1.035       .  S
N4           C11   1.354       .  A
N4           C12   1.354       .  A
C5           C13   1.387       .  A
C5           C21   1.410       .  A
C6           C22   1.413       .  A
C6           C14   1.387       .  A
C7           C15   1.387       .  A
C7           C24   1.413       .  A
C8           C23   1.412       .  A
C8           C16   1.387       .  A
C9           C21   1.415       .  A
C9           C17   1.386       .  A
C10          C24   1.417       .  A
C10          C18   1.387       .  A
C11          C19   1.387       .  A
C11          C22   1.416       .  A
C12          C20   1.386       .  A
C12          C23   1.415       .  A
C13          C14   1.377       .  A
C13          H25   1.083       .  S
C14          H26   1.083       .  S
C15          C16   1.376       .  A
C15          H27   1.083       .  S
C16          H28   1.083       .  S
C17          C18   1.371       .  A
C17          H29   1.082       .  S
C18          H30   1.082       .  S
C19          C20   1.372       .  A
C19          H31   1.082       .  S
C20          H32   1.082       .  S
C21        C1459   1.483       .  S
C22        C1471   1.487       .  S
C23        C1483   1.485       .  S
C24        C1447   1.490       .  S
N35          C40   1.354       .  A
N35          C39   1.354       .  A
N35          H67   1.042       .  S
N36          C43   1.350       .  A
N36          C44   1.350       .  A
N37          C42   1.354       .  A
N37          C41   1.354       .  A
N37          H68   1.042       .  S
N38          C45   1.351       .  A
N38          C46   1.351       .  A
C39          C47   1.388       .  A
C39          C55   1.416       .  A
C40          C56   1.416       .  A
C40          C48   1.387       .  A
C41          C49   1.388       .  A
C41          C58   1.414       .  A
C42          C57   1.413       .  A
C42          C50   1.387       .  A
C43          C55   1.410       .  A
C43          C51   1.386       .  A
C44          C58   1.408       .  A
C44          C52   1.386       .  A
C45          C53   1.386       .  A
C45          C56   1.411       .  A
C46          C54   1.385       .  A
C46          C57   1.409       .  A
C47          C48   1.374       .  A
C47          H59   1.082       .  S
C48          H60   1.082       .  S
C49          C50   1.372       .  A
C49          H61   1.082       .  S
C50          H62   1.082       .  S
C51          C52   1.374       .  A
C51          H63   1.082       .  S
C52          H64   1.083       .  S
C53          C54   1.373       .  A
C53          H65   1.082       .  S
C54          H66   1.082       .  S
C55        C1423   1.489       .  S
C56        C1414   1.490       .  S
C57        C1435   1.487       .  S
C58        C1402   1.485       .  S
N69          C74   1.355       .  A
N69          C73   1.356       .  A
N69         H101   1.041       .  S
N70          C77   1.352       .  A
N70          C78   1.351       .  A
N71          C76   1.356       .  A
N71          C75   1.355       .  A
N71         H102   1.042       .  S
N72          C79   1.352       .  A
N72          C80   1.353       .  A
C73          C81   1.387       .  A
C73          C89   1.418       .  A
C74          C90   1.418       .  A
C74          C82   1.388       .  A
C75          C83   1.387       .  A
C75          C92   1.418       .  A
C76          C91   1.417       .  A
C76          C84   1.386       .  A
C77          C89   1.415       .  A
C77          C85   1.387       .  A
C78          C92   1.413       .  A
C78          C86   1.386       .  A
C79          C87   1.386       .  A
C79          C90   1.415       .  A
C80          C88   1.386       .  A
C80          C91   1.417       .  A
C81          C82   1.374       .  A
C81          H93   1.082       .  S
C82          H94   1.082       .  S
C83          C84   1.374       .  A
C83          H95   1.082       .  S
C84          H96   1.082       .  S
C85          C86   1.376       .  A
C85          H97   1.082       .  S
C86          H98   1.082       .  S
C87          C88   1.376       .  A
C87          H99   1.082       .  S
C88         H100   1.082       .  S
C89        C1375   1.497       .  S
C90        C1354   1.493       .  S
C91        C1390   1.502       .  S
C92        C1363   1.493       .  S
N103        C108   1.356       .  A
N103        C107   1.352       .  A
N103        H135   1.041       .  S
N104        C111   1.352       .  A
N104        C112   1.354       .  A
N105        C110   1.354       .  A
N105        C109   1.355       .  A
N105        H136   1.041       .  S
N106        C113   1.352       .  A
N106        C114   1.349       .  A
C107        C115   1.388       .  A
C107        C123   1.415       .  A
C108        C124   1.416       .  A
C108        C116   1.387       .  A
C109        C117   1.386       .  A
C109        C126   1.416       .  A
C110        C125   1.418       .  A
C110        C118   1.389       .  A
C111        C123   1.414       .  A
C111        C119   1.386       .  A
C112        C126   1.415       .  A
C112        C120   1.385       .  A
C113        C121   1.385       .  A
C113        C124   1.411       .  A
C114        C122   1.387       .  A
C114        C125   1.412       .  A
C115        C116   1.374       .  A
C115        H127   1.082       .  S
C116        H128   1.082       .  S
C117        C118   1.374       .  A
C117        H129   1.082       .  S
C118        H130   1.082       .  S
C119        C120   1.373       .  A
C119        H131   1.082       .  S
C120        H132   1.082       .  S
C121        C122   1.374       .  A
C121        H133   1.082       .  S
C122        H134   1.082       .  S
C123       C1315   1.487       .  S
C124       C1339   1.496       .  S
C125       C1303   1.489       .  S
C126       C1327   1.496       .  S
N137        C142   1.353       .  A
N137        C141   1.354       .  A
N137        H169   1.042       .  S
N138        C145   1.352       .  A
N138        C146   1.351       .  A
N139        C144   1.354       .  A
N139        C143   1.353       .  A
N139        H170   1.041       .  S
N140        C147   1.350       .  A
N140        C148   1.352       .  A
C141        C149   1.387       .  A
C141        C157   1.414       .  A
C142        C158   1.414       .  A
C142        C150   1.388       .  A
C143        C151   1.388       .  A
C143        C160   1.415       .  A
C144        C159   1.415       .  A
C144        C152   1.387       .  A
C145        C157   1.413       .  A
C145        C153   1.385       .  A
C146        C160   1.412       .  A
C146        C154   1.386       .  A
C147        C155   1.386       .  A
C147        C158   1.412       .  A
C148        C156   1.386       .  A
C148        C159   1.413       .  A
C149        C150   1.374       .  A
C149        H161   1.082       .  S
C150        H162   1.082       .  S
C151        C152   1.374       .  A
C151        H163   1.082       .  S
C152        H164   1.082       .  S
C153        C154   1.374       .  A
C153        H165   1.082       .  S
C154        H166   1.082       .  S
C155        C156   1.375       .  A
C155        H167   1.082       .  S
C156        H168   1.082       .  S
C157       C1291   1.494       .  S
C158       C1270   1.487       .  S
C159       C1279   1.493       .  S
C160       C1258   1.487       .  S
N171        C176   1.353       .  A
N171        C175   1.353       .  A
N171        H203   1.038       .  S
N172        C179   1.351       .  A
N172        C180   1.352       .  A
N173        C178   1.351       .  A
N173        C177   1.351       .  A
N173        H204   1.039       .  S
N174        C181   1.353       .  A
N174        C182   1.353       .  A
C175        C183   1.388       .  A
C175        C191   1.419       .  A
C176        C192   1.415       .  A
C176        C184   1.387       .  A
C177        C185   1.388       .  A
C177        C194   1.416       .  A
C178        C193   1.411       .  A
C178        C186   1.386       .  A
C179        C191   1.414       .  A
C179        C187   1.387       .  A
C180        C194   1.413       .  A
C180        C188   1.386       .  A
C181        C189   1.386       .  A
C181        C192   1.415       .  A
C182        C190   1.386       .  A
C182        C193   1.415       .  A
C183        C184   1.377       .  A
C183        H195   1.082       .  S
C184        H196   1.082       .  S
C185        C186   1.376       .  A
C185        H197   1.082       .  S
C186        H198   1.081       .  S
C187        C188   1.373       .  A
C187        H199   1.082       .  S
C188        H200   1.082       .  S
C189        C190   1.373       .  A
C189        H201   1.082       .  S
C190        H202   1.082       .  S
C191       C1210   1.492       .  S
C192       C1231   1.488       .  S
C193       C1219   1.485       .  S
C194       C1246   1.492       .  S
Zr205       O206   2.441       .  S
Zr205       O207   2.426       .  S
Zr205       O208   2.434       .  S
Zr205       O211   2.441       .  S
Zr205       O213   2.379       .  S
Zr205       O214   2.379       .  S
Zr205       O215   2.409       .  S
Zr205       O216   2.397       .  S
O206        H262   0.991       .  S
O206        H270   0.990       .  S
O207        C227   1.282       .  A
O208        C229   1.281       .  A
O209       Zr219   2.440       .  S
O209        C228   1.287       .  A
O210       Zr218   2.430       .  S
O210        C229   1.283       .  A
O211        C228   1.286       .  A
O212       Zr220   2.392       .  S
O212        C227   1.275       .  A
O213       Zr218   2.395       .  S
O213       Zr220   2.384       .  S
O214       Zr219   2.387       .  S
O214       Zr220   2.378       .  S
O214        H249   0.966       .  S
O215       Zr218   2.403       .  S
O215       Zr235   2.388       .  S
O215        H252   0.965       .  S
O216       Zr219   2.385       .  S
O216       Zr235   2.390       .  S
Zr217       O242   2.445   1_554  S
Zr217       O236   2.445       .  S
Zr217       O244   2.427   1_554  S
Zr217       O232   2.434   1_554  S
Zr217       O223   2.406       .  S
Zr217       O224   2.408       .  S
Zr217       O225   2.381       .  S
Zr217       O226   2.386       .  S
Zr218       O237   2.435       .  S
Zr218       O230   2.435       .  S
Zr218       O231   2.431       .  S
Zr218       O224   2.402       .  S
Zr218       O225   2.397       .  S
Zr219       O221   2.435       .  S
Zr219       O243   2.440       .  S
Zr219       O245   2.403       .  S
Zr219       O223   2.400       .  S
Zr219       O226   2.404       .  S
Zr220       O246   2.436       .  S
Zr220       O247   2.437       .  S
Zr220       O222   2.439       .  S
Zr220       O223   2.389       .  S
Zr220       O224   2.374       .  S
O221        H258   0.990       .  S
O222        H253   0.990       .  S
O222        H267   0.990       .  S
O224        H250   0.962       .  S
O225       Zr235   2.384       .  S
O226       Zr235   2.375       .  S
O226        H251   0.966       .  S
C227       C1195   1.471       .  S
C228       C1366   1.496       .  S
C229       C1243   1.468       .  S
O230        H266   0.990       .  S
O231        C233   1.285   1_554  A
O232        C233   1.284       .  A
C233       C1171   1.467       .  S
O234       Zr235   2.438       .  S
O234        H263   0.990       .  S
Zr235       O238   2.436       .  S
Zr235       O239   2.439       .  S
Zr235       O240   2.410       .  S
O236        C241   1.284       .  A
O237        H254   0.990       .  S
O237        H269   0.990       .  S
O238        H255   0.990       .  S
O239        H259   0.990       .  S
O239        H268   0.990       .  S
O240        C241   1.280       .  A
C241       C1438   1.486   1_554  S
O242        H261   0.991       .  S
O242        H265   0.991       .  S
O243        H257   0.990       .  S
O243        H264   0.990       .  S
O244        C248   1.281   1_556  A
O245        C248   1.279       .  A
O246        H256   0.990       .  S
O247        H260   0.990       .  S
C248       C1183   1.461   1_554  S
Zr271       O272   2.441   1_554  S
Zr271       O273   2.445       .  S
Zr271       O274   2.450   1_554  S
Zr271       O277   2.422   1_554  S
Zr271       O279   2.381       .  S
Zr271       O280   2.386       .  S
Zr271       O281   2.403       .  S
Zr271       O282   2.407       .  S
O272        H328   0.991       .  S
O272        H336   0.990       .  S
O273        C293   1.285       .  A
O274        C295   1.286   1_556  A
O275       Zr285   2.427       .  S
O275        C294   1.285       .  A
O276       Zr284   2.418       .  S
O276        C295   1.282       .  A
O277        C294   1.283   1_556  A
O278       Zr286   2.411       .  S
O278        C293   1.280       .  A
O279       Zr284   2.402       .  S
O279       Zr286   2.383       .  S
O280       Zr285   2.396       .  S
O280       Zr286   2.373       .  S
O280        H315   0.966       .  S
O281       Zr284   2.403       .  S
O281       Zr301   2.386       .  S
O281        H318   0.964       .  S
O282       Zr285   2.390       .  S
O282       Zr301   2.386       .  S
Zr283       O308   2.443       .  S
Zr283       O302   2.423       .  S
Zr283       O310   2.443       .  S
Zr283       O298   2.448       .  S
Zr283       O289   2.397       .  S
Zr283       O290   2.403       .  S
Zr283       O291   2.378       .  S
Zr283       O292   2.386       .  S
Zr284       O303   2.438       .  S
Zr284       O296   2.435       .  S
Zr284       O297   2.442       .  S
Zr284       O290   2.395       .  S
Zr284       O291   2.391       .  S
Zr285       O287   2.436       .  S
Zr285       O309   2.436       .  S
Zr285       O311   2.428       .  S
Zr285       O289   2.396       .  S
Zr285       O292   2.387       .  S
Zr286       O312   2.435       .  S
Zr286       O313   2.436       .  S
Zr286       O288   2.436       .  S
Zr286       O289   2.391       .  S
Zr286       O290   2.389       .  S
O287        H324   0.990       .  S
O288        H319   0.991       .  S
O288        H333   0.990       .  S
O290        H316   0.965       .  S
O291       Zr301   2.387       .  S
O292       Zr301   2.382       .  S
O292        H317   0.967       .  S
C293       C1411   1.482   1_554  S
C294       C1135   1.470   1_554  S
C295       C1150   1.479   1_554  S
O296        H332   0.990       .  S
O297        C299   1.287       .  A
O298        C299   1.287       .  A
C299       C1294   1.495       .  S
O300       Zr301   2.440       .  S
O300        H329   0.991       .  S
Zr301       O304   2.436       .  S
Zr301       O305   2.442       .  S
Zr301       O306   2.392       .  S
O302        C307   1.282       .  A
O303        H320   0.990       .  S
O303        H335   0.990       .  S
O304        H321   0.990       .  S
O305        H325   0.990       .  S
O305        H334   0.990       .  S
O306        C307   1.275       .  A
C307       C1159   1.464       .  S
O308        H327   0.991       .  S
O308        H331   0.990       .  S
O309        H323   0.990       .  S
O309        H330   0.989       .  S
O310        C314   1.284       .  A
O311        C314   1.282       .  A
O312        H322   0.990       .  S
O313        H326   0.990       .  S
C314       C1222   1.475       .  S
Zr337       O338   2.442       .  S
Zr337       O339   2.424       .  S
Zr337       O340   2.443       .  S
Zr337       O343   2.433       .  S
Zr337       O345   2.379       .  S
Zr337       O346   2.383       .  S
Zr337       O347   2.406       .  S
Zr337       O348   2.397       .  S
O338        H394   0.990       .  S
O338        H402   0.991       .  S
O339        C359   1.281       .  A
O340        C361   1.284       .  A
O341       Zr351   2.430       .  S
O341        C360   1.285       .  A
O342       Zr350   2.439       .  S
O342        C361   1.283       .  A
O343        C360   1.284       .  A
O344       Zr352   2.391       .  S
O344        C359   1.276       .  A
O345       Zr350   2.395       .  S
O345       Zr352   2.387       .  S
O346       Zr351   2.385       .  S
O346       Zr352   2.385       .  S
O346        H381   0.967       .  S
O347       Zr350   2.397       .  S
O347       Zr367   2.388       .  S
O347        H384   0.965       .  S
O348       Zr351   2.385       .  S
O348       Zr367   2.391       .  S
Zr349       O374   2.440       .  S
Zr349       O368   2.434       .  S
Zr349       O376   2.437       .  S
Zr349       O364   2.453       .  S
Zr349       O355   2.399       .  S
Zr349       O356   2.408       .  S
Zr349       O357   2.385       .  S
Zr349       O358   2.392       .  S
Zr350       O369   2.435       .  S
Zr350       O362   2.436       .  S
Zr350       O363   2.416       .  S
Zr350       O356   2.407       .  S
Zr350       O357   2.399       .  S
Zr351       O353   2.435       .  S
Zr351       O375   2.437       .  S
Zr351       O377   2.412       .  S
Zr351       O355   2.393       .  S
Zr351       O358   2.392       .  S
Zr352       O378   2.437       .  S
Zr352       O379   2.437       .  S
Zr352       O354   2.437       .  S
Zr352       O355   2.381       .  S
Zr352       O356   2.378       .  S
O353        H390   0.990       .  S
O354        H385   0.990       .  S
O354        H399   0.989       .  S
O356        H382   0.964       .  S
O357       Zr367   2.379       .  S
O358       Zr367   2.376       .  S
O358        H383   0.966       .  S
C359       C1114   1.467       .  S
C360       C1255   1.488       .  S
C361       C1234   1.476       .  S
O362        H398   0.990       .  S
O363        C365   1.283       .  A
O364        C365   1.287       .  A
C365       C1099   1.477       .  S
O366       Zr367   2.436       .  S
O366        H395   0.990       .  S
Zr367       O370   2.436       .  S
Zr367       O371   2.438       .  S
Zr367       O372   2.412       .  S
O368        C373   1.283       .  A
O369        H386   0.990       .  S
O369        H401   0.990       .  S
O370        H387   0.990       .  S
O371        H391   0.990       .  S
O371        H400   0.990       .  S
O372        C373   1.281       .  A
C373       C1486   1.480       .  S
O374        H393   0.990       .  S
O374        H397   0.990       .  S
O375        H389   0.990       .  S
O375        H396   0.990       .  S
O376        C380   1.285       .  A
O377        C380   1.281       .  A
O378        H388   0.990       .  S
O379        H392   0.990       .  S
C380       C1126   1.477       .  S
Zr403       O404   2.442       .  S
Zr403       O405   2.445       .  S
Zr403       O406   2.422       .  S
Zr403       O409   2.437       .  S
Zr403       O411   2.385       .  S
Zr403       O412   2.381       .  S
Zr403       O413   2.417       .  S
Zr403       O414   2.391       .  S
O404        H460   0.991       .  S
O404        H468   0.990       .  S
O405        C425   1.284       .  A
O406        C427   1.281       .  A
O407       Zr417   2.413       .  S
O407        C426   1.282       .  A
O408       Zr416   2.417       .  S
O408        C427   1.282       .  A
O409        C426   1.284       .  A
O410       Zr418   2.410       .  S
O410        C425   1.280       .  A
O411       Zr416   2.406       .  S
O411       Zr418   2.376       .  S
O412       Zr417   2.392       .  S
O412       Zr418   2.377       .  S
O412        H447   0.966       .  S
O413       Zr416   2.409       .  S
O413       Zr433   2.387       .  S
O413        H450   0.965       .  S
O414       Zr417   2.384       .  S
O414       Zr433   2.376       .  S
Zr415       O440   2.441       .  S
Zr415       O434   2.432       .  S
Zr415       O442   2.443       .  S
Zr415       O430   2.428       .  S
Zr415       O421   2.398       .  S
Zr415       O422   2.403       .  S
Zr415       O423   2.377       .  S
Zr415       O424   2.375       .  S
Zr416       O435   2.436       .  S
Zr416       O428   2.435       .  S
Zr416       O429   2.453       .  S
Zr416       O422   2.393       .  S
Zr416       O423   2.386       .  S
Zr417       O419   2.436       .  S
Zr417       O441   2.437       .  S
Zr417       O443   2.417       .  S
Zr417       O421   2.389       .  S
Zr417       O424   2.390       .  S
Zr418       O444   2.435       .  S
Zr418       O445   2.434       .  S
Zr418       O420   2.438       .  S
Zr418       O421   2.393       .  S
Zr418       O422   2.387       .  S
O419        H456   0.990       .  S
O420        H451   0.990       .  S
O420        H465   0.990       .  S
O422        H448   0.965       .  S
O423       Zr433   2.384       .  S
O424       Zr433   2.383       .  S
O424        H449   0.965       .  S
C425       C1474   1.489       .  S
C426       C1087   1.466       .  S
C427       C1075   1.461       .  S
O428        H464   0.990       .  S
O429        C431   1.288       .  A
O430        C431   1.285       .  A
C431       C1378   1.495       .  S
O432       Zr433   2.438       .  S
O432        H461   0.990       .  S
Zr433       O436   2.436       .  S
Zr433       O437   2.439       .  S
Zr433       O438   2.394       .  S
O434        C439   1.285       .  A
O435        H452   0.990       .  S
O435        H467   0.990       .  S
O436        H453   0.990       .  S
O437        H457   0.990       .  S
O437        H466   0.990       .  S
O438        C439   1.276       .  A
C439       C1063   1.476       .  S
O440        H459   0.991       .  S
O440        H463   0.990       .  S
O441        H455   0.990       .  S
O441        H462   0.990       .  S
O442        C446   1.284       .  A
O443        C446   1.281       .  A
O444        H454   0.990       .  S
O445        H458   0.990       .  S
C446       C1207   1.471       .  S
Zr469       O470   2.441       .  S
Zr469       O471   2.428       .  S
Zr469       O472   2.446       .  S
Zr469       O475   2.431       .  S
Zr469       O477   2.376       .  S
Zr469       O478   2.387       .  S
Zr469       O479   2.405       .  S
Zr469       O480   2.401       .  S
O470        H526   0.990       .  S
O470        H534   0.991       .  S
O471        C491   1.282       .  A
O472        C493   1.285       .  A
O473       Zr483   2.431       .  S
O473        C492   1.285       .  A
O474       Zr482   2.441       .  S
O474        C493   1.285       .  A
O475        C492   1.284       .  A
O476       Zr484   2.400       .  S
O476        C491   1.277       .  A
O477       Zr482   2.393       .  S
O477       Zr484   2.388       .  S
O478       Zr483   2.392       .  S
O478       Zr484   2.381       .  S
O478        H513   0.966       .  S
O479       Zr482   2.396       .  S
O479       Zr499   2.391       .  S
O479        H516   0.964       .  S
O480       Zr483   2.387       .  S
O480       Zr499   2.392       .  S
Zr481       O506   2.443   1_554  S
Zr481       O500   2.448       .  S
Zr481       O508   2.436   1_554  S
Zr481       O496   2.450   1_554  S
Zr481       O487   2.406       .  S
Zr481       O488   2.409       .  S
Zr481       O489   2.380       .  S
Zr481       O490   2.386       .  S
Zr482       O501   2.435       .  S
Zr482       O494   2.434       .  S
Zr482       O495   2.412       .  S
Zr482       O488   2.408       .  S
Zr482       O489   2.399       .  S
Zr483       O485   2.435       .  S
Zr483       O507   2.441       .  S
Zr483       O509   2.419       .  S
Zr483       O487   2.388       .  S
Zr483       O490   2.401       .  S
Zr484       O510   2.436       .  S
Zr484       O511   2.435       .  S
Zr484       O486   2.435       .  S
Zr484       O487   2.384       .  S
Zr484       O488   2.384       .  S
O485        H522   0.990       .  S
O486        H517   0.990       .  S
O486        H531   0.989       .  S
O488        H514   0.964       .  S
O489       Zr499   2.377       .  S
O490       Zr499   2.380       .  S
O490        H515   0.965       .  S
C491       C1054   1.472       .  S
C492       C1267   1.485       .  S
C493       C1342   1.494       .  S
O494        H530   0.990       .  S
O495        C497   1.282       .  A
O496        C497   1.286   1_556  A
C497       C1027   1.471   1_554  S
O498       Zr499   2.439       .  S
O498        H527   0.990       .  S
Zr499       O502   2.438       .  S
Zr499       O503   2.439       .  S
Zr499       O504   2.414       .  S
O500        C505   1.285       .  A
O501        H518   0.990       .  S
O501        H533   0.990       .  S
O502        H519   0.990       .  S
O503        H523   0.990       .  S
O503        H532   0.990       .  S
O504        C505   1.280       .  A
C505       C1426   1.485   1_554  S
O506        H525   0.991       .  S
O506        H529   0.990       .  S
O507        H521   0.990       .  S
O507        H528   0.990       .  S
O508        C512   1.285   1_556  A
O509        C512   1.284       .  A
O510        H520   0.990       .  S
O511        H524   0.990       .  S
C512       C1042   1.478   1_554  S
Zr535       O536   2.443       .  S
Zr535       O537   2.443       .  S
Zr535       O538   2.442       .  S
Zr535       O541   2.443       .  S
Zr535       O543   2.381       .  S
Zr535       O544   2.384       .  S
Zr535       O545   2.409       .  S
Zr535       O546   2.399       .  S
O536        H592   0.991       .  S
O536        H600   0.990       .  S
O537        C557   1.285       .  A
O538        C559   1.284       .  A
O539       Zr549   2.417       .  S
O539        C558   1.283       .  A
O540       Zr548   2.402       .  S
O540        C559   1.280       .  A
O541        C558   1.286       .  A
O542       Zr550   2.413       .  S
O542        C557   1.280       .  A
O543       Zr548   2.398       .  S
O543       Zr550   2.374       .  S
O544       Zr549   2.395       .  S
O544       Zr550   2.374       .  S
O544        H579   0.966       .  S
O545       Zr548   2.405       .  S
O545       Zr565   2.383       .  S
O545        H582   0.965       .  S
O546       Zr549   2.390       .  S
O546       Zr565   2.382       .  S
Zr547       O572   2.444       .  S
Zr547       O566   2.437       .  S
Zr547       O574   2.434       .  S
Zr547       O562   2.439       .  S
Zr547       O553   2.403       .  S
Zr547       O554   2.404       .  S
Zr547       O555   2.375       .  S
Zr547       O556   2.380       .  S
Zr548       O567   2.435       .  S
Zr548       O560   2.434       .  S
Zr548       O561   2.433       .  S
Zr548       O554   2.391       .  S
Zr548       O555   2.386       .  S
Zr549       O551   2.435       .  S
Zr549       O573   2.435       .  S
Zr549       O575   2.425       .  S
Zr549       O553   2.393       .  S
Zr549       O556   2.389       .  S
Zr550       O576   2.436       .  S
Zr550       O577   2.435       .  S
Zr550       O552   2.437       .  S
Zr550       O553   2.399       .  S
Zr550       O554   2.386       .  S
O551        H588   0.990       .  S
O552        H583   0.990       .  S
O552        H597   0.990       .  S
O554        H580   0.965       .  S
O555       Zr565   2.385       .  S
O556       Zr565   2.382       .  S
O556        H581   0.967       .  S
C557       C1450   1.486       .  S
C558       C1003   1.475       .  S
C559        C994   1.475       .  S
O560        H596   0.990       .  S
O561        C563   1.284       .  A
O562        C563   1.286       .  A
C563       C1282   1.490       .  S
O564       Zr565   2.439       .  S
O564        H593   0.990       .  S
Zr565       O568   2.438       .  S
Zr565       O569   2.441       .  S
Zr565       O570   2.387       .  S
O566        C571   1.285       .  A
O567        H584   0.990       .  S
O567        H599   0.990       .  S
O568        H585   0.990       .  S
O569        H589   0.990       .  S
O569        H598   0.990       .  S
O570        C571   1.274       .  A
C571       C1015   1.470       .  S
O572        H591   0.991       .  S
O572        H595   0.991       .  S
O573        H587   0.990       .  S
O573        H594   0.990       .  S
O574        C578   1.283       .  A
O575        C578   1.283       .  A
O576        H586   0.990       .  S
O577        H590   0.990       .  S
C578       C1306   1.486       .  S
Zr601       O602   2.438       .  S
Zr601       O603   2.419       .  S
Zr601       O604   2.444       .  S
Zr601       O607   2.435       .  S
Zr601       O609   2.379       .  S
Zr601       O610   2.382       .  S
Zr601       O611   2.406       .  S
Zr601       O612   2.396       .  S
O602        H658   0.990       .  S
O602        H666   0.990       .  S
O603        C623   1.280       .  A
O604        C625   1.285       .  A
O605       Zr615   2.427       .  S
O605        C624   1.284       .  A
O606       Zr614   2.463       .  S
O606        C625   1.290       .  A
O607        C624   1.285       .  A
O608       Zr616   2.392       .  S
O608        C623   1.275       .  A
O609       Zr614   2.397       .  S
O609       Zr616   2.392       .  S
O610       Zr615   2.386       .  S
O610       Zr616   2.379       .  S
O610        H645   0.966       .  S
O611       Zr614   2.398       .  S
O611       Zr631   2.391       .  S
O611        H648   0.965       .  S
O612       Zr615   2.388       .  S
O612       Zr631   2.392       .  S
Zr613       O638   2.441   1_554  S
Zr613       O632   2.438   1_554  S
Zr613       O640   2.448   1_554  S
Zr613       O628   2.430   1_554  S
Zr613       O619   2.401       .  S
Zr613       O620   2.410       .  S
Zr613       O621   2.389       .  S
Zr613       O622   2.384       .  S
Zr614       O633   2.434       .  S
Zr614       O626   2.436       .  S
Zr614       O627   2.423       .  S
Zr614       O620   2.411       .  S
Zr614       O621   2.403       .  S
Zr615       O617   2.436       .  S
Zr615       O639   2.437       .  S
Zr615       O641   2.410       .  S
Zr615       O619   2.393       .  S
Zr615       O622   2.393       .  S
Zr616       O642   2.437       .  S
Zr616       O643   2.436       .  S
Zr616       O618   2.435       .  S
Zr616       O619   2.385       .  S
Zr616       O620   2.376       .  S
O617        H654   0.990       .  S
O618        H649   0.990       .  S
O618        H663   0.990       .  S
O620        H646   0.964       .  S
O621       Zr631   2.377       .  S
O622       Zr631   2.376       .  S
O622        H647   0.966       .  S
C623        C982   1.474       .  S
C624       C1318   1.485       .  S
C625       C1387   1.502       .  S
O626        H662   0.990       .  S
O627        C629   1.284       .  A
O628        C629   1.283   1_556  A
C629        C955   1.462   1_554  S
O630       Zr631   2.439       .  S
O630        H659   0.991       .  S
Zr631       O634   2.439       .  S
Zr631       O635   2.437       .  S
Zr631       O636   2.414       .  S
O632        C637   1.283   1_556  A
O633        H650   0.990       .  S
O633        H665   0.990       .  S
O634        H651   0.990       .  S
O635        H655   0.990       .  S
O635        H664   0.990       .  S
O636        C637   1.281       .  A
C637       C1399   1.484   1_554  S
O638        H657   0.990       .  S
O638        H661   0.990       .  S
O639        H653   0.990       .  S
O639        H660   0.990       .  S
O640        C644   1.285   1_556  A
O641        C644   1.282       .  A
O642        H652   0.990       .  S
O643        H656   0.990       .  S
C644        C967   1.486   1_554  S
Zr667       O668   2.442       .  S
Zr667       O669   2.435       .  S
Zr667       O670   2.434       .  S
Zr667       O673   2.431       .  S
Zr667       O675   2.383       .  S
Zr667       O676   2.391       .  S
Zr667       O677   2.409       .  S
Zr667       O678   2.393       .  S
O668        H724   0.990       .  S
O668        H732   0.991       .  S
O669        C689   1.283       .  A
O670        C691   1.283       .  A
O671       Zr681   2.431       .  S
O671        C690   1.286       .  A
O672       Zr680   2.400       .  S
O672        C691   1.280       .  A
O673        C690   1.284       .  A
O674       Zr682   2.415       .  S
O674        C689   1.281       .  A
O675       Zr680   2.401       .  S
O675       Zr682   2.379       .  S
O676       Zr681   2.395       .  S
O676       Zr682   2.376       .  S
O676        H711   0.967       .  S
O677       Zr680   2.402       .  S
O677       Zr697   2.384       .  S
O677        H714   0.966       .  S
O678       Zr681   2.388       .  S
O678       Zr697   2.378       .  S
Zr679       O704   2.442       .  S
Zr679       O698   2.439       .  S
Zr679       O706   2.428       .  S
Zr679       O694   2.446       .  S
Zr679       O685   2.406       .  S
Zr679       O686   2.403       .  S
Zr679       O687   2.377       .  S
Zr679       O688   2.385       .  S
Zr680       O699   2.436       .  S
Zr680       O692   2.433       .  S
Zr680       O693   2.435       .  S
Zr680       O686   2.388       .  S
Zr680       O687   2.385       .  S
Zr681       O683   2.434       .  S
Zr681       O705   2.437       .  S
Zr681       O707   2.438       .  S
Zr681       O685   2.394       .  S
Zr681       O688   2.392       .  S
Zr682       O708   2.436       .  S
Zr682       O709   2.435       .  S
Zr682       O684   2.438       .  S
Zr682       O685   2.396       .  S
Zr682       O686   2.384       .  S
O683        H720   0.990       .  S
O684        H715   0.991       .  S
O684        H729   0.990       .  S
O686        H712   0.965       .  S
O687       Zr697   2.389       .  S
O688       Zr697   2.384       .  S
O688        H713   0.966       .  S
C689       C1462   1.483       .  S
C690        C919   1.480       .  S
C691        C943   1.468       .  S
O692        H728   0.990       .  S
O693        C695   1.285       .  A
O694        C695   1.287       .  A
C695       C1330   1.489       .  S
O696       Zr697   2.438       .  S
O696        H725   0.990       .  S
Zr697       O700   2.438       .  S
Zr697       O701   2.438       .  S
Zr697       O702   2.390       .  S
O698        C703   1.285       .  A
O699        H716   0.990       .  S
O699        H731   0.989       .  S
O700        H717   0.990       .  S
O701        H721   0.990       .  S
O701        H730   0.990       .  S
O702        C703   1.275       .  A
C703        C934   1.468       .  S
O704        H723   0.990       .  S
O704        H727   0.991       .  S
O705        H719   0.990       .  S
O705        H726   0.990       .  S
O706        C710   1.282       .  A
O707        C710   1.285       .  A
O708        H718   0.990       .  S
O709        H722   0.990       .  S
C710       C1351   1.488       .  S
O733       Zr745   2.404       .  S
O733        C735   1.282       .  A
O734       Zr771   2.418   1_545  S
O734        C735   1.285       .  A
C735        C979   1.474       .  S
O736       Zr748   2.410       .  S
O736        C738   1.283       .  A
O737       Zr772   2.434   1_445  S
O737        C738   1.288       .  A
C738       C1066   1.477       .  S
O739       Zr748   2.415       .  S
O739        C741   1.283       .  A
O740       Zr771   2.422   1_445  S
O740        C741   1.287       .  A
C741       C1198   1.476       .  S
O742       Zr745   2.411       .  S
O742        C744   1.283       .  A
O743       Zr772   2.422   1_545  S
O743        C744   1.287       .  A
C744        C931   1.471       .  S
Zr745       O746   2.434       .  S
Zr745       O747   2.436       .  S
Zr745       O751   2.363       .  S
Zr745       O752   2.365       .  S
Zr745       O775   2.360   1_545  S
Zr745       O777   2.361   1_545  S
O746        H789   0.990       .  S
O747        H788   0.990       .  S
O747        H792   0.990       .  S
Zr748       O749   2.433       .  S
Zr748       O750   2.433       .  S
Zr748       O752   2.364   1_455  S
Zr748       O751   2.357   1_455  S
Zr748       O776   2.367       .  S
Zr748       O778   2.364       .  S
O749        H790   0.990       .  S
O749        H793   0.990       .  S
O750        H783   0.990       .  S
O751       Zr771   2.376   1_545  S
O752       Zr772   2.385   1_545  S
O752        H779   0.966       .  S
O753       Zr765   2.395       .  S
O753        C755   1.279       .  A
O754       Zr772   2.431       .  S
O754        C755   1.288       .  A
C755       C1018   1.471       .  S
O756       Zr768   2.405       .  S
O756        C758   1.282       .  A
O757       Zr771   2.424   1_455  S
O757        C758   1.286       .  A
C758       C1162   1.470       .  S
O759       Zr768   2.406       .  S
O759        C761   1.282       .  A
O760       Zr772   2.415   1_455  S
O760        C761   1.285       .  A
C761       C1111   1.471       .  S
O762       Zr765   2.413       .  S
O762        C764   1.284       .  A
O763       Zr771   2.410       .  S
O763        C764   1.284       .  A
C764       C1051   1.471       .  S
Zr765       O766   2.435       .  S
Zr765       O767   2.435       .  S
Zr765       O773   2.360   1_655  S
Zr765       O774   2.356   1_655  S
Zr765       O777   2.358       .  S
Zr765       O775   2.364       .  S
O766        H786   0.990       .  S
O766        H791   0.990       .  S
O767        H787   0.990       .  S
Zr768       O769   2.435       .  S
Zr768       O770   2.433       .  S
Zr768       O774   2.362       .  S
Zr768       O773   2.364       .  S
Zr768       O778   2.358   1_565  S
Zr768       O776   2.361   1_565  S
O769        H785   0.990       .  S
O770        H784   0.990       .  S
O770        H794   0.990       .  S
Zr771       O774   2.376   1_655  S
Zr771       O776   2.382   1_665  S
Zr771       O777   2.381       .  S
Zr772       O773   2.384   1_655  S
Zr772       O775   2.378       .  S
Zr772       O778   2.381   1_665  S
O773        H781   0.966       .  S
O776        H780   0.965       .  S
O777        H782   0.966       .  S
O795       Zr807   2.417       .  S
O795        C797   1.283       .  A
O796       Zr833   2.439       .  S
O796        C797   1.289       .  A
C797       C1147   1.462       .  S
O798       Zr810   2.424       .  S
O798        C800   1.285       .  A
O799       Zr834   2.421   1_545  S
O799        C800   1.285       .  A
C800        C958   1.463       .  S
O801       Zr810   2.428       .  S
O801        C803   1.285       .  A
O802       Zr833   2.420   1_545  S
O802        C803   1.284       .  A
C803       C1186   1.458       .  S
O804       Zr807   2.428       .  S
O804        C806   1.285       .  A
O805       Zr834   2.422       .  S
O805        C806   1.285       .  A
C806       C1039   1.460       .  S
Zr807       O808   2.434       .  S
Zr807       O809   2.436       .  S
Zr807       O813   2.372       .  S
Zr807       O814   2.367       .  S
Zr807       O837   2.361       .  S
Zr807       O839   2.368       .  S
O808        H851   0.990       .  S
O809        H850   0.990       .  S
O809        H854   0.990       .  S
Zr810       O811   2.434       .  S
Zr810       O812   2.435       .  S
Zr810       O814   2.365   1_545  S
Zr810       O813   2.366   1_545  S
Zr810       O838   2.364       .  S
Zr810       O840   2.367       .  S
O811        H852   0.990       .  S
O811        H855   0.990       .  S
O812        H845   0.990       .  S
O813       Zr833   2.386       .  S
O814       Zr834   2.389       .  S
O814        H841   0.966       .  S
O815       Zr827   2.411       .  S
O815        C817   1.282       .  A
O816       Zr834   2.430       .  S
O816        C817   1.286       .  A
C817        C991   1.456       .  S
O818       Zr830   2.413       .  S
O818        C820   1.283       .  A
O819       Zr833   2.428   1_545  S
O819        C820   1.286       .  A
C820       C1078   1.457       .  S
O821       Zr830   2.427       .  S
O821        C823   1.285       .  A
O822       Zr834   2.429   1_545  S
O822        C823   1.286       .  A
C823        C922   1.464       .  S
O824       Zr827   2.424       .  S
O824        C826   1.284       .  A
O825       Zr833   2.428       .  S
O825        C826   1.286       .  A
C826       C1123   1.460       .  S
Zr827       O828   2.436       .  S
Zr827       O829   2.434       .  S
Zr827       O835   2.368   1_565  S
Zr827       O836   2.364   1_565  S
Zr827       O839   2.360       .  S
Zr827       O837   2.365       .  S
O828        H848   0.990       .  S
O828        H853   0.990       .  S
O829        H849   0.990       .  S
Zr830       O831   2.434       .  S
Zr830       O832   2.435       .  S
Zr830       O836   2.370       .  S
Zr830       O835   2.363       .  S
Zr830       O840   2.360       .  S
Zr830       O838   2.361       .  S
O831        H847   0.990       .  S
O832        H846   0.990       .  S
O832        H856   0.990       .  S
Zr833       O836   2.384   1_565  S
Zr833       O838   2.390   1_565  S
Zr833       O839   2.384       .  S
Zr834       O835   2.383   1_565  S
Zr834       O837   2.378       .  S
Zr834       O840   2.383   1_565  S
O835        H843   0.965       .  S
O838        H842   0.966       .  S
O839        H844   0.965       .  S
O857       Zr869   2.419       .  S
O857        C859   1.284       .  A
O858       Zr895   2.430   1_455  S
O858        C859   1.286       .  A
C859       C1174   1.461       .  S
O860       Zr872   2.412       .  S
O860        C862   1.282       .  A
O861       Zr896   2.439       .  S
O861        C862   1.288       .  A
C862       C1030   1.463       .  S
O863       Zr872   2.428       .  S
O863        C865   1.285       .  A
O864       Zr895   2.424       .  S
O864        C865   1.285       .  A
C865        C970   1.461       .  S
O866       Zr869   2.418       .  S
O866        C868   1.284       .  A
O867       Zr896   2.426   1_455  S
O867        C868   1.287       .  A
C868       C1138   1.462       .  S
Zr869       O870   2.434       .  S
Zr869       O871   2.439       .  S
Zr869       O875   2.371       .  S
Zr869       O876   2.367       .  S
Zr869       O899   2.359       .  S
Zr869       O901   2.358       .  S
O870        H913   0.990       .  S
O871        H912   0.990       .  S
O871        H916   0.990       .  S
Zr872       O873   2.435       .  S
Zr872       O874   2.434       .  S
Zr872       O876   2.366   1_655  S
Zr872       O875   2.363   1_655  S
Zr872       O900   2.362       .  S
Zr872       O902   2.373       .  S
O873        H914   0.990       .  S
O873        H917   0.990       .  S
O874        H907   0.990       .  S
O875       Zr895   2.387   1_455  S
O876       Zr896   2.392   1_455  S
O876        H903   0.965       .  S
O877       Zr889   2.428       .  S
O877        C879   1.285       .  A
O878       Zr896   2.433   1_455  S
O878        C879   1.287       .  A
C879       C1102   1.467       .  S
O880       Zr892   2.410       .  S
O880        C882   1.282       .  A
O881       Zr895   2.427       .  S
O881        C882   1.286       .  A
C882        C946   1.453       .  S
O883       Zr892   2.422       .  S
O883        C885   1.284       .  A
O884       Zr896   2.439       .  S
O884        C885   1.288       .  A
C885       C1006   1.466       .  S
O886       Zr889   2.426       .  S
O886        C888   1.284       .  A
O887       Zr895   2.425   1_455  S
O887        C888   1.285       .  A
C888       C1090   1.460       .  S
Zr889       O890   2.433       .  S
Zr889       O891   2.433       .  S
Zr889       O897   2.367   1_455  S
Zr889       O898   2.366   1_455  S
Zr889       O901   2.364       .  S
Zr889       O899   2.363       .  S
O890        H910   0.990       .  S
O890        H915   0.990       .  S
O891        H911   0.990       .  S
Zr892       O893   2.434       .  S
Zr892       O894   2.437       .  S
Zr892       O898   2.375       .  S
Zr892       O897   2.369       .  S
Zr892       O902   2.361       .  S
Zr892       O900   2.366       .  S
O893        H909   0.990       .  S
O894        H908   0.990       .  S
O894        H918   0.990       .  S
Zr895       O898   2.384       .  S
Zr895       O900   2.385       .  S
Zr895       O901   2.389   1_655  S
Zr896       O897   2.388       .  S
Zr896       O899   2.384   1_655  S
Zr896       O902   2.382       .  S
O897        H905   0.966       .  S
O900        H904   0.966       .  S
O901        H906   0.966       .  S
C919        C920   1.406       .  A
C919        C924   1.412       .  A
C920        C921   1.397       .  A
C920        H925   1.084       .  S
C921        C922   1.403       .  A
C921        O926   1.371       .  S
C922        C923   1.402       .  A
C923        C924   1.402       .  A
C923        H927   1.084       .  S
C924        O928   1.371       .  S
O926        H930   0.992       .  S
O928        H929   0.992       .  S
C931        C932   1.402       .  A
C931        C936   1.412       .  A
C932        C933   1.396       .  A
C932        H937   1.084       .  S
C933        C934   1.411       .  A
C933        O938   1.372       .  S
C934        C935   1.399       .  A
C935        C936   1.392       .  A
C935        H939   1.084       .  S
C936        O940   1.372       .  S
O938        H942   0.992       .  S
O940        H941   0.992       .  S
C943        C944   1.406       .  A
C943        C948   1.408       .  A
C944        C945   1.391       .  A
C944        H949   1.084       .  S
C945        C946   1.400       .  A
C945        O950   1.371       .  S
C946        C947   1.401       .  A
C947        C948   1.398       .  A
C947        H951   1.084       .  S
C948        O952   1.372       .  S
O950        H954   0.992       .  S
O952        H953   0.992       .  S
C955        C956   1.398       .  A
C955        C960   1.408       .  A
C956        C957   1.395       .  A
C956        H961   1.084       .  S
C957        C958   1.408       .  A
C957        O962   1.372       .  S
C958        C959   1.400       .  A
C959        C960   1.399       .  A
C959        H963   1.083       .  S
C960        O964   1.372       .  S
O962        H966   0.992       .  S
O964        H965   0.992   1_556  S
C967        C968   1.408       .  A
C967        C972   1.415       .  A
C968        C969   1.392       .  A
C968        H973   1.083   1_556  S
C969        C970   1.400       .  A
C969        O974   1.372       .  S
C970        C971   1.402       .  A
C971        C972   1.404       .  A
C971        H975   1.084       .  S
C972        O976   1.371       .  S
O974        H978   0.992       .  S
O976        H977   0.992       .  S
C979        C980   1.406       .  A
C979        C984   1.409       .  A
C980        C981   1.387       .  A
C980        H985   1.084       .  S
C981        C982   1.409       .  A
C981        O986   1.372       .  S
C982        C983   1.407       .  A
C983        C984   1.397       .  A
C983        H987   1.083       .  S
C984        O988   1.372       .  S
O986        H990   0.992       .  S
O988        H989   0.992       .  S
C991        C992   1.400       .  A
C991        C996   1.401       .  A
C992        C993   1.400       .  A
C992        H997   1.084       .  S
C993        C994   1.411       .  A
C993        O998   1.371       .  S
C994        C995   1.406       .  A
C995        C996   1.392       .  A
C995        H999   1.084       .  S
C996       O1000   1.372       .  S
O998       H1002   0.992       .  S
O1000      H1001   0.992       .  S
C1003      C1004   1.402       .  A
C1003      C1008   1.412       .  A
C1004      C1005   1.400       .  A
C1004      H1009   1.084       .  S
C1005      C1006   1.407       .  A
C1005      O1010   1.372       .  S
C1006      C1007   1.400       .  A
C1007      C1008   1.400       .  A
C1007      H1011   1.084       .  S
C1008      O1012   1.372       .  S
O1010      H1014   0.992       .  S
O1012      H1013   0.992       .  S
C1015      C1016   1.398       .  A
C1015      C1020   1.414       .  A
C1016      C1017   1.390       .  A
C1016      H1021   1.084       .  S
C1017      C1018   1.415       .  A
C1017      O1022   1.372       .  S
C1018      C1019   1.400       .  A
C1019      C1020   1.396       .  A
C1019      H1023   1.084       .  S
C1020      O1024   1.372       .  S
O1022      H1026   0.992       .  S
O1024      H1025   0.992       .  S
C1027      C1028   1.401       .  A
C1027      C1032   1.411       .  A
C1028      C1029   1.399       .  A
C1028      H1033   1.084       .  S
C1029      C1030   1.408       .  A
C1029      O1034   1.372       .  S
C1030      C1031   1.399       .  A
C1031      C1032   1.399       .  A
C1031      H1035   1.084       .  S
C1032      O1036   1.372   1_556  S
O1034      H1038   0.992       .  S
O1036      H1037   0.992       .  S
C1039      C1040   1.401       .  A
C1039      C1044   1.402       .  A
C1040      C1041   1.400       .  A
C1040      H1045   1.084       .  S
C1041      C1042   1.411       .  A
C1041      O1046   1.371       .  S
C1042      C1043   1.407       .  A
C1043      C1044   1.396       .  A
C1043      H1047   1.084   1_556  S
C1044      O1048   1.372       .  S
O1046      H1050   0.992       .  S
O1048      H1049   0.992       .  S
C1051      C1052   1.404       .  A
C1051      C1056   1.410       .  A
C1052      C1053   1.391       .  A
C1052      H1057   1.084       .  S
C1053      C1054   1.408       .  A
C1053      O1058   1.372       .  S
C1054      C1055   1.405       .  A
C1055      C1056   1.397       .  A
C1055      H1059   1.084       .  S
C1056      O1060   1.373       .  S
O1058      H1062   0.992       .  S
O1060      H1061   0.992       .  S
C1063      C1064   1.400       .  A
C1063      C1068   1.415       .  A
C1064      C1065   1.389       .  A
C1064      H1069   1.084       .  S
C1065      C1066   1.413       .  A
C1065      O1070   1.372       .  S
C1066      C1067   1.403       .  A
C1067      C1068   1.401       .  A
C1067      H1071   1.084       .  S
C1068      O1072   1.372       .  S
O1070      H1074   0.992       .  S
O1072      H1073   0.992       .  S
C1075      C1076   1.400       .  A
C1075      C1080   1.408       .  A
C1076      C1077   1.393       .  A
C1076      H1081   1.084       .  S
C1077      C1078   1.406       .  A
C1077      O1082   1.372       .  S
C1078      C1079   1.399       .  A
C1079      C1080   1.398       .  A
C1079      H1083   1.083       .  S
C1080      O1084   1.372       .  S
O1082      H1086   0.992       .  S
O1084      H1085   0.992       .  S
C1087      C1088   1.405       .  A
C1087      C1092   1.406       .  A
C1088      C1089   1.396       .  A
C1088      H1093   1.084       .  S
C1089      C1090   1.402       .  A
C1089      O1094   1.371       .  S
C1090      C1091   1.402       .  A
C1091      C1092   1.398       .  A
C1091      H1095   1.084       .  S
C1092      O1096   1.372       .  S
O1094      H1098   0.992       .  S
O1096      H1097   0.992       .  S
C1099      C1100   1.403       .  A
C1099      C1104   1.412       .  A
C1100      C1101   1.403       .  A
C1100      H1105   1.084       .  S
C1101      C1102   1.409       .  A
C1101      O1106   1.372       .  S
C1102      C1103   1.398       .  A
C1103      C1104   1.396       .  A
C1103      H1107   1.084       .  S
C1104      O1108   1.372       .  S
O1106      H1110   0.992       .  S
O1108      H1109   0.992       .  S
C1111      C1112   1.406       .  A
C1111      C1116   1.409       .  A
C1112      C1113   1.390       .  A
C1112      H1117   1.084       .  S
C1113      C1114   1.407       .  A
C1113      O1118   1.373       .  S
C1114      C1115   1.404       .  A
C1115      C1116   1.395       .  A
C1115      H1119   1.084       .  S
C1116      O1120   1.372       .  S
O1118      H1122   0.992       .  S
O1120      H1121   0.992       .  S
C1123      C1124   1.401       .  A
C1123      C1128   1.402       .  A
C1124      C1125   1.399       .  A
C1124      H1129   1.084       .  S
C1125      C1126   1.410       .  A
C1125      O1130   1.372       .  S
C1126      C1127   1.407       .  A
C1127      C1128   1.398       .  A
C1127      H1131   1.084       .  S
C1128      O1132   1.373       .  S
O1130      H1134   0.992       .  S
O1132      H1133   0.992       .  S
C1135      C1136   1.404       .  A
C1135      C1140   1.409       .  A
C1136      C1137   1.397       .  A
C1136      H1141   1.084       .  S
C1137      C1138   1.404       .  A
C1137      O1142   1.372       .  S
C1138      C1139   1.403       .  A
C1139      C1140   1.398       .  A
C1139      H1143   1.084       .  S
C1140      O1144   1.372       .  S
O1142      H1146   0.992       .  S
O1144      H1145   0.992       .  S
C1147      C1148   1.403       .  A
C1147      C1152   1.402       .  A
C1148      C1149   1.401       .  A
C1148      H1153   1.084       .  S
C1149      C1150   1.409       .  A
C1149      O1154   1.372       .  S
C1150      C1151   1.408       .  A
C1151      C1152   1.397       .  A
C1151      H1155   1.084   1_556  S
C1152      O1156   1.372       .  S
O1154      H1158   0.992       .  S
O1156      H1157   0.992       .  S
C1159      C1160   1.398       .  A
C1159      C1164   1.411       .  A
C1160      C1161   1.387       .  A
C1160      H1165   1.084       .  S
C1161      C1162   1.412       .  A
C1161      O1166   1.372       .  S
C1162      C1163   1.404       .  A
C1163      C1164   1.398       .  A
C1163      H1167   1.084       .  S
C1164      O1168   1.372       .  S
O1166      H1170   0.992       .  S
O1168      H1169   0.992       .  S
C1171      C1172   1.399       .  A
C1171      C1176   1.410       .  A
C1172      C1173   1.395       .  A
C1172      H1177   1.084       .  S
C1173      C1174   1.408       .  A
C1173      O1178   1.372       .  S
C1174      C1175   1.399       .  A
C1175      C1176   1.400       .  A
C1175      H1179   1.084       .  S
C1176      O1180   1.373       .  S
O1178      H1182   0.992       .  S
O1180      H1181   0.992   1_556  S
C1183      C1184   1.400       .  A
C1183      C1188   1.408       .  A
C1184      C1185   1.394       .  A
C1184      H1189   1.084       .  S
C1185      C1186   1.407       .  A
C1185      O1190   1.372       .  S
C1186      C1187   1.399       .  A
C1187      C1188   1.397       .  A
C1187      H1191   1.083       .  S
C1188      O1192   1.372   1_556  S
O1190      H1194   0.991       .  S
O1192      H1193   0.992       .  S
C1195      C1196   1.400       .  A
C1195      C1200   1.412       .  A
C1196      C1197   1.393       .  A
C1196      H1201   1.084       .  S
C1197      C1198   1.413       .  A
C1197      O1202   1.373       .  S
C1198      C1199   1.404       .  A
C1199      C1200   1.397       .  A
C1199      H1203   1.083       .  S
C1200      O1204   1.372       .  S
O1202      H1206   0.992       .  S
O1204      H1205   0.992       .  S
C1207      C1208   1.402       .  A
C1207      C1212   1.407       .  A
C1208      C1209   1.403       .  A
C1208      H1213   1.084       .  S
C1209      C1210   1.411       .  A
C1209      O1214   1.373       .  S
C1210      C1211   1.404       .  A
C1211      C1212   1.397       .  A
C1211      H1215   1.084       .  S
C1212      O1216   1.372       .  S
O1214      H1218   0.992       .  S
O1216      H1217   0.992       .  S
C1219      C1220   1.401       .  A
C1219      C1224   1.409       .  A
C1220      C1221   1.395       .  A
C1220      H1225   1.084       .  S
C1221      C1222   1.408       .  A
C1221      O1226   1.372       .  S
C1222      C1223   1.406       .  A
C1223      C1224   1.405       .  A
C1223      H1227   1.083       .  S
C1224      O1228   1.371       .  S
O1226      H1230   0.992       .  S
O1228      H1229   0.992       .  S
C1231      C1232   1.400       .  A
C1231      C1236   1.409       .  A
C1232      C1233   1.396       .  A
C1232      H1237   1.084       .  S
C1233      C1234   1.408       .  A
C1233      O1238   1.372       .  S
C1234      C1235   1.405       .  A
C1235      C1236   1.409       .  A
C1235      H1239   1.083       .  S
C1236      O1240   1.372       .  S
O1238      H1242   0.992       .  S
O1240      H1241   0.991       .  S
C1243      C1244   1.403       .  A
C1243      C1248   1.405       .  A
C1244      C1245   1.405       .  A
C1244      H1249   1.084       .  S
C1245      C1246   1.411       .  A
C1245      O1250   1.373       .  S
C1246      C1247   1.404       .  A
C1247      C1248   1.394       .  A
C1247      H1251   1.084       .  S
C1248      O1252   1.372       .  S
O1250      H1254   0.992       .  S
O1252      H1253   0.992       .  S
C1255      C1256   1.409       .  A
C1255      C1260   1.414       .  A
C1256      C1257   1.402       .  A
C1256      H1261   1.083       .  S
C1257      C1258   1.406       .  A
C1257      O1262   1.372       .  S
C1258      C1259   1.400       .  A
C1259      C1260   1.398       .  A
C1259      H1263   1.084       .  S
C1260      O1264   1.371       .  S
O1262      H1266   0.992       .  S
O1264      H1265   0.992       .  S
C1267      C1268   1.407       .  A
C1267      C1272   1.414       .  A
C1268      C1269   1.400       .  A
C1268      H1273   1.083       .  S
C1269      C1270   1.407       .  A
C1269      O1274   1.371       .  S
C1270      C1271   1.400       .  A
C1271      C1272   1.398       .  A
C1271      H1275   1.084       .  S
C1272      O1276   1.372       .  S
O1274      H1278   0.992       .  S
O1276      H1277   0.992       .  S
C1279      C1280   1.405       .  A
C1279      C1284   1.406       .  A
C1280      C1281   1.404       .  A
C1280      H1285   1.084       .  S
C1281      C1282   1.415       .  A
C1281      O1286   1.372       .  S
C1282      C1283   1.408       .  A
C1283      C1284   1.397       .  A
C1283      H1287   1.083       .  S
C1284      O1288   1.372       .  S
O1286      H1290   0.991       .  S
O1288      H1289   0.992       .  S
C1291      C1292   1.400       .  A
C1291      C1296   1.408       .  A
C1292      C1293   1.399       .  A
C1292      H1297   1.084       .  S
C1293      C1294   1.416       .  A
C1293      O1298   1.370       .  S
C1294      C1295   1.410       .  A
C1295      C1296   1.405       .  A
C1295      H1299   1.083       .  S
C1296      O1300   1.372       .  S
O1298      H1302   0.992       .  S
O1300      H1301   0.992       .  S
C1303      C1304   1.402       .  A
C1303      C1308   1.408       .  A
C1304      C1305   1.400       .  A
C1304      H1309   1.084       .  S
C1305      C1306   1.413       .  A
C1305      O1310   1.371       .  S
C1306      C1307   1.407       .  A
C1307      C1308   1.399       .  A
C1307      H1311   1.083       .  S
C1308      O1312   1.373       .  S
O1310      H1314   0.992       .  S
O1312      H1313   0.992       .  S
C1315      C1316   1.400       .  A
C1315      C1320   1.407       .  A
C1316      C1317   1.398       .  A
C1316      H1321   1.084       .  S
C1317      C1318   1.413       .  A
C1317      O1322   1.372       .  S
C1318      C1319   1.408       .  A
C1319      C1320   1.403       .  A
C1319      H1323   1.083       .  S
C1320      O1324   1.372       .  S
O1322      H1326   0.992       .  S
O1324      H1325   0.992       .  S
C1327      C1328   1.405       .  A
C1327      C1332   1.408       .  A
C1328      C1329   1.405       .  A
C1328      H1333   1.083       .  S
C1329      C1330   1.413       .  A
C1329      O1334   1.372       .  S
C1330      C1331   1.407       .  A
C1331      C1332   1.400       .  A
C1331      H1335   1.083       .  S
C1332      O1336   1.372       .  S
O1334      H1338   0.992       .  S
O1336      H1337   0.992       .  S
C1339      C1340   1.403       .  A
C1339      C1344   1.409       .  A
C1340      C1341   1.404       .  A
C1340      H1345   1.083       .  S
C1341      C1342   1.414       .  A
C1341      O1346   1.371       .  S
C1342      C1343   1.409       .  A
C1343      C1344   1.403       .  A
C1343      H1347   1.083       .  S
C1344      O1348   1.373       .  S
O1346      H1350   0.992       .  S
O1348      H1349   0.992       .  S
C1351      C1352   1.408       .  A
C1351      C1356   1.412       .  A
C1352      C1353   1.399       .  A
C1352      H1357   1.083       .  S
C1353      C1354   1.408       .  A
C1353      O1358   1.372       .  S
C1354      C1355   1.404       .  A
C1355      C1356   1.403       .  A
C1355      H1359   1.083       .  S
C1356      O1360   1.371       .  S
O1358      H1362   0.992       .  S
O1360      H1361   0.992       .  S
C1363      C1364   1.401       .  A
C1363      C1368   1.408       .  A
C1364      C1365   1.401       .  A
C1364      H1369   1.084       .  S
C1365      C1366   1.416       .  A
C1365      O1370   1.370       .  S
C1366      C1367   1.410       .  A
C1367      C1368   1.403       .  A
C1367      H1371   1.083       .  S
C1368      O1372   1.372       .  S
O1370      H1374   0.992       .  S
O1372      H1373   0.992       .  S
C1375      C1376   1.407       .  A
C1375      C1380   1.407       .  A
C1376      C1377   1.408       .  A
C1376      H1381   1.083       .  S
C1377      C1378   1.414       .  A
C1377      O1382   1.371       .  S
C1378      C1379   1.409       .  A
C1379      C1380   1.397       .  A
C1379      H1383   1.082       .  S
C1380      O1384   1.372       .  S
O1382      H1386   0.992       .  S
O1384      H1385   0.992       .  S
C1387      C1388   1.409       .  A
C1387      C1392   1.418       .  A
C1388      C1389   1.410       .  A
C1388      H1393   1.083       .  S
C1389      C1390   1.411       .  A
C1389      O1394   1.372       .  S
C1390      C1391   1.401       .  A
C1391      C1392   1.401       .  A
C1391      H1395   1.084       .  S
C1392      O1396   1.370       .  S
O1394      H1398   0.992       .  S
O1396      H1397   0.992       .  S
C1399      C1400   1.406   1_556  A
C1399      C1404   1.414       .  A
C1400      C1401   1.392   1_554  A
C1400      H1405   1.084       .  S
C1401      C1402   1.405       .  A
C1401      O1406   1.372   1_556  S
C1402      C1403   1.403       .  A
C1403      C1404   1.406       .  A
C1403      H1407   1.083       .  S
C1404      O1408   1.371       .  S
O1406      H1410   0.991   1_554  S
O1408      H1409   0.992       .  S
C1411      C1412   1.406       .  A
C1411      C1416   1.412   1_556  A
C1412      C1413   1.405       .  A
C1412      H1417   1.083       .  S
C1413      C1414   1.408       .  A
C1413      O1418   1.371       .  S
C1414      C1415   1.401       .  A
C1415      C1416   1.396   1_556  A
C1415      H1419   1.084       .  S
C1416      O1420   1.373       .  S
O1418      H1422   0.992       .  S
O1420      H1421   0.992       .  S
C1423      C1424   1.401       .  A
C1423      C1428   1.407       .  A
C1424      C1425   1.397   1_556  A
C1424      H1429   1.084       .  S
C1425      C1426   1.412   1_554  A
C1425      O1430   1.372       .  S
C1426      C1427   1.407       .  A
C1427      C1428   1.406       .  A
C1427      H1431   1.083       .  S
C1428      O1432   1.372       .  S
O1430      H1434   0.992       .  S
O1432      H1433   0.992       .  S
C1435      C1436   1.404       .  A
C1435      C1440   1.405       .  A
C1436      C1437   1.407       .  A
C1436      H1441   1.083       .  S
C1437      C1438   1.414       .  A
C1437      O1442   1.371       .  S
C1438      C1439   1.406   1_556  A
C1439      C1440   1.393   1_554  A
C1439      H1443   1.084       .  S
C1440      O1444   1.372   1_556  S
O1442      H1446   0.992       .  S
O1444      H1445   0.992   1_554  S
C1447      C1448   1.402       .  A
C1447      C1452   1.408       .  A
C1448      C1449   1.395       .  A
C1448      H1453   1.084       .  S
C1449      C1450   1.414       .  A
C1449      O1454   1.372       .  S
C1450      C1451   1.408       .  A
C1451      C1452   1.404       .  A
C1451      H1455   1.083       .  S
C1452      O1456   1.371       .  S
O1454      H1458   0.991       .  S
O1456      H1457   0.991       .  S
C1459      C1460   1.402       .  A
C1459      C1464   1.405       .  A
C1460      C1461   1.405       .  A
C1460      H1465   1.083       .  S
C1461      C1462   1.414       .  A
C1461      O1466   1.371       .  S
C1462      C1463   1.406       .  A
C1463      C1464   1.393       .  A
C1463      H1467   1.084       .  S
C1464      O1468   1.373       .  S
O1466      H1470   0.992       .  S
O1468      H1469   0.992       .  S
C1471      C1472   1.398       .  A
C1471      C1476   1.408       .  A
C1472      C1473   1.392       .  A
C1472      H1477   1.084       .  S
C1473      C1474   1.415       .  A
C1473      O1478   1.372       .  S
C1474      C1475   1.411       .  A
C1475      C1476   1.408       .  A
C1475      H1479   1.083       .  S
C1476      O1480   1.371       .  S
O1478      H1482   0.992       .  S
O1480      H1481   0.992       .  S
C1483      C1484   1.403       .  A
C1483      C1488   1.405       .  A
C1484      C1485   1.407       .  A
C1484      H1489   1.083       .  S
C1485      C1486   1.413       .  A
C1485      O1490   1.372       .  S
C1486      C1487   1.404       .  A
C1487      C1488   1.392       .  A
C1487      H1491   1.084       .  S
C1488      O1492   1.373       .  S
O1490      H1494   0.992       .  S
O1492      H1493   0.992       .  S
