geometry optimzed in LAMMPS
_audit_creation_date              2020-11-30 
_audit_creation_method            'lammps2cif' 
_symmetry_space_group_name_H-M    'P1' 
_symmetry_Int_Tables_number       1 
_symmetry_cell_setting            triclinic 
loop_ 
_symmetry_equiv_pos_as_xyz 
  x,y,z 
_cell_length_a                    37.42488974997798 
_cell_length_b                    37.40180529369239 
_cell_length_c                    37.39968799625273 
_cell_angle_alpha                 89.9207303768465 
_cell_angle_beta                  90.07464450371907 
_cell_angle_gamma                 90.23449192295708 
loop_ 
_atom_site_label 
_atom_site_type_symbol 
_atom_site_fract_x 
_atom_site_fract_y 
_atom_site_fract_z 
_atom_site_charge 
O1          O  0.73205648  0.68543930  0.24699397    -0.87130
C2          C  0.74831418  0.75737504  0.16877159     0.88900
Mg3        Mg  0.69383901  0.69383393  0.28767696     1.58150
O4          O  0.81573931  0.75256116  0.23255450    -0.86860
O5          O  0.78945425  0.67409300  0.24135219    -0.74190
C6          C  0.72272841  0.86073552  0.33535353     0.93950
O7          O  0.67671228  0.73932935  0.21029146    -0.74000
O8          O  0.70034499  0.83599883  0.34213540    -0.81510
Mg9        Mg  0.71363109  0.69297506  0.19366771     1.57960
C10         C  0.86151226  0.83679471  0.27908283     0.93880
O11         O  0.74880805  0.64518001  0.17820592    -0.79770
H12         H  0.85250941  0.72429804  0.25917385    -0.05110
C13         C  0.74336589  0.83084098  0.24473743     0.88810
O14         O  0.73942569  0.71151850  0.32548338    -0.74280
O15         O  0.75563749  0.73018699  0.18632206    -0.87040
O16         O  0.85594683  0.82219562  0.24876310    -0.79850
C17         C  0.83976276  0.77613248  0.14102996     0.93990
C18         C  0.77954902  0.63799587  0.16547389     0.93840
Mg19       Mg  0.78881238  0.80635116  0.30652939     1.57950
O20         O  0.75337095  0.85380260  0.32227645    -0.79780
O21         O  0.82614363  0.76027070  0.28994685    -0.74020
O22         O  0.82559834  0.74570585  0.14745133    -0.79860
O23         O  0.66568622  0.65603363  0.19961578    -0.81570
O24         O  0.67721166  0.75308472  0.35294703    -0.79890
C25         C  0.83247304  0.74500337  0.26019028     0.88280
O26         O  0.74710993  0.76877446  0.31400612    -0.87030
O27         O  0.77039980  0.81367675  0.25322169    -0.87140
O28         O  0.71305541  0.82505042  0.25919098    -0.74190
Mg29       Mg  0.80824691  0.71067269  0.19526204     1.57970
O30         O  0.84702742  0.79799580  0.16602567    -0.81570
H31         H  0.75691720  0.64836161  0.27648261    -0.05290
O32         O  0.68703381  0.74660039  0.26777196    -0.86840
H33         H  0.65050547  0.77525751  0.24124089    -0.05120
H34         H  0.77496487  0.74314548  0.35184033    -0.05290
C35         C  0.67039902  0.75441845  0.24014148     0.88260
C36         C  0.75905724  0.66827873  0.25560512     0.88840
C37         C  0.75452028  0.74154110  0.33145584     0.88890
H38         H  0.74540733  0.85078133  0.22387454    -0.05270
O39         O  0.76337287  0.78741043  0.17473352    -0.74300
Mg40       Mg  0.69443588  0.78823805  0.30523413     1.58000
H41         H  0.72794545  0.75572406  0.14831295    -0.05290
C42         C  0.64050829  0.66352171  0.22109239     0.93880
O43         O  0.65568529  0.70095491  0.33413687    -0.81530
C44         C  0.66294733  0.72268942  0.35921938     0.93940
O45         O  0.80211703  0.66258030  0.15864352    -0.81510
Mg46       Mg  0.80882609  0.80528719  0.21256068     1.58180
O47         O  0.64671711  0.67746849  0.25157568    -0.79850
O48         O  0.83603515  0.84402188  0.30026368    -0.81540
O49         O  0.79927877  0.22176424  0.78663373    -0.87130
C50         C  0.69421088  0.23017399  0.80713147     0.88900
Mg51       Mg  0.83192230  0.26741740  0.77928723     1.58150
O52         O  0.71472723  0.20071022  0.72140830    -0.86860
O53         O  0.78393386  0.17285246  0.75769843    -0.74190
C54         C  0.73890068  0.36821461  0.67039413     0.93950
O55         O  0.75658859  0.28278203  0.82758841    -0.74000
O56         O  0.76923641  0.36690858  0.68553789    -0.81510
Mg57       Mg  0.76639097  0.22197796  0.83261277     1.57960
C58         C  0.67017573  0.23732802  0.63261997     0.93880
O59         O  0.77922189  0.16150247  0.83874457    -0.79770
H60         H  0.73832660  0.16568842  0.68869650    -0.05110
C61         C  0.69395168  0.30607250  0.73189659     0.88810
O62         O  0.82835053  0.25772043  0.71819347    -0.74280
O63         O  0.72154610  0.21325501  0.79929358    -0.87040
O64         O  0.66238253  0.22128733  0.66171515    -0.79850
C65         C  0.63315888  0.16777862  0.76302915     0.93990
C66         C  0.76486142  0.13181899  0.82988917     0.93840
Mg67       Mg  0.73320046  0.27830887  0.66844203     1.57950
O68         O  0.72159115  0.33960583  0.66336980    -0.79780
O69         O  0.74177362  0.21724850  0.67182817    -0.74020
O70         O  0.66276400  0.15954517  0.77772636    -0.79860
O71         O  0.81159651  0.23504104  0.86972575    -0.81570
O72         O  0.83999072  0.33633742  0.72109473    -0.79890
C73         C  0.73152631  0.19327205  0.69383924     0.88280
O74         O  0.77904797  0.28495886  0.70141086    -0.87030
O75         O  0.70142559  0.27852541  0.71508417    -0.87140
O76         O  0.71789265  0.32840994  0.74161856    -0.74190
Mg77       Mg  0.72321387  0.16725034  0.76632209     1.57970
O78         O  0.63175040  0.18665453  0.73474232    -0.81570
H79         H  0.83507188  0.19064685  0.76214732    -0.05290
O80         O  0.78538560  0.29920339  0.77889117    -0.86840
H81         H  0.75960858  0.33413263  0.81001596    -0.05120
H82         H  0.81110111  0.26003930  0.66667784    -0.05290
C83         C  0.76725580  0.30664631  0.80562336     0.88260
C84         C  0.80736376  0.19491769  0.76900238     0.88840
C85         C  0.80625528  0.26755518  0.69413850     0.88890
H86         H  0.66642091  0.31104136  0.73893870    -0.05270
O87         O  0.67237796  0.24122968  0.78345489    -0.74300
Mg88       Mg  0.77907950  0.33169248  0.73282999     1.58000
H89         H  0.68930745  0.23666016  0.83485613    -0.05290
C90         C  0.82773299  0.26499368  0.86915677     0.93880
O91         O  0.86810366  0.31385780  0.76814963    -0.81530
C92         C  0.86876620  0.32898157  0.73774429     0.93940
O93         O  0.73605011  0.13046757  0.81187496    -0.81510
Mg94       Mg  0.66823846  0.23288919  0.72258925     1.58180
O95         O  0.83629989  0.28018604  0.83986639    -0.79850
O96         O  0.68643930  0.26723476  0.63259881    -0.81540
O97         O  0.80000170  0.77873842  0.71296028    -0.87130
C98         C  0.69455899  0.76873434  0.69394225     0.88900
Mg99       Mg  0.83249973  0.73336941  0.72163194     1.58150
O100        O  0.71664377  0.80032487  0.77855685    -0.86860
O101        O  0.78499317  0.82833555  0.74065191    -0.74190
C102        C  0.73822034  0.63437753  0.83241112     0.93950
O103        O  0.75705641  0.71599898  0.67346847    -0.74000
O104        O  0.76790342  0.63393188  0.81598103    -0.81510
Mg105      Mg  0.76643846  0.77666152  0.66721286     1.57960
C106        C  0.67250176  0.76561888  0.86908039     0.93880
O107        O  0.77828654  0.83687395  0.65851697    -0.79770
H108        H  0.74117193  0.83617989  0.80993336    -0.05110
C109        C  0.69429030  0.69527535  0.77030192     0.88810
O110        O  0.82893739  0.74393245  0.78240293    -0.74280
O111        O  0.72217051  0.78584700  0.70089410    -0.87040
O112        O  0.66456616  0.78103203  0.83971744    -0.79850
C113        C  0.63433868  0.83098256  0.73717556     0.93990
C114        C  0.76414915  0.86675863  0.66644292     0.93840
Mg115      Mg  0.73498541  0.72421057  0.83321953     1.57950
O116        O  0.72262220  0.66363884  0.83988426    -0.79780
O117        O  0.74428336  0.78509872  0.82820055    -0.74020
O118        O  0.66331975  0.83864147  0.72093009    -0.79860
O119        O  0.81126057  0.76326826  0.63016879    -0.81570
O120        O  0.83972752  0.66456253  0.78075065    -0.79890
C121        C  0.73397098  0.80848560  0.80566550     0.88280
O122        O  0.77988048  0.71636367  0.79983887    -0.87030
O123        O  0.70221469  0.72283785  0.78703152    -0.87140
O124        O  0.71787854  0.67296611  0.76018041    -0.74190
Mg125      Mg  0.72413797  0.83281650  0.73252878     1.57970
O126        O  0.63448784  0.81522370  0.76729494    -0.81570
H127        H  0.83610826  0.81095753  0.73600305    -0.05290
O128        O  0.78593097  0.70115692  0.72249781    -0.86840
H129        H  0.76071885  0.66506414  0.69196579    -0.05120
H130        H  0.81227064  0.74191116  0.83404861    -0.05290
C131        C  0.76802404  0.69279176  0.69584409     0.88260
C132        C  0.80830094  0.80619515  0.72966306     0.88840
C133        C  0.80717213  0.73403114  0.80670620     0.88890
H134        H  0.66662309  0.69037253  0.76349248    -0.05270
O135        O  0.67286400  0.75870624  0.71823309    -0.74300
Mg136      Mg  0.77895874  0.66922663  0.76882838     1.58000
H137        H  0.68915882  0.76136647  0.66651182    -0.05290
C138        C  0.82926925  0.73457428  0.63161853     0.93880
O139        O  0.86828280  0.68725098  0.73393939    -0.81530
C140        C  0.86862502  0.67221136  0.76440012     0.93940
O141        O  0.73653573  0.86894583  0.68608514    -0.81510
Mg142      Mg  0.66978108  0.76852865  0.77906082     1.58180
O143        O  0.83788782  0.72019274  0.66129758    -0.79850
O144        O  0.68943464  0.73626323  0.86977147    -0.81540
C145        C  0.49167600  0.36445869  0.30263036     0.04350
C146        C  0.46557659  0.36454210  0.32954382    -0.11800
C147        C  0.42999571  0.37496916  0.32152522     0.01850
C148        C  0.42156292  0.38521313  0.28592521    -0.10330
C149        C  0.44809514  0.38492015  0.25940733     0.04340
C150        C  0.48265880  0.37481184  0.26814864    -0.09750
H151        H  0.47309141  0.35667348  0.35637171     0.09930
H152        H  0.39464550  0.39284798  0.27865493     0.07460
H153        H  0.50302996  0.37466233  0.24746604     0.07310
C154        C  0.36636194  0.30027839  0.49409639     0.04350
C155        C  0.36664353  0.32742098  0.46809097    -0.11800
C156        C  0.37602885  0.31942038  0.43221778     0.01850
C157        C  0.38526318  0.28381033  0.42333472    -0.10330
C158        C  0.38545274  0.25721649  0.44977818     0.04340
C159        C  0.37605774  0.26573306  0.48464926    -0.09750
H160        H  0.35954494  0.35436397  0.47579093     0.09930
H161        H  0.39205083  0.27666900  0.39613795     0.07460
H162        H  0.37607957  0.24488356  0.50490220     0.07310
C163        C  0.40184491  0.37476391  0.35003190     0.04350
C164        C  0.40193321  0.34838947  0.37698348    -0.11800
C165        C  0.37580439  0.34786185  0.40405538     0.01850
C166        C  0.34919052  0.37431445  0.40387670    -0.10330
C167        C  0.34816794  0.40087413  0.37716853     0.04340
C168        C  0.37471275  0.40081215  0.35043075    -0.09750
H169        H  0.42240794  0.32805406  0.37688300     0.09930
H170        H  0.32904978  0.37412236  0.42460780     0.07460
H171        H  0.37424541  0.42111575  0.32981826     0.07310
C172        C  0.29953653  0.48994551  0.36711700     0.04350
C173        C  0.32668288  0.46419590  0.36644408    -0.11800
C174        C  0.31938123  0.42857484  0.37738449     0.01850
C175        C  0.28414297  0.41956311  0.38829865    -0.10330
C176        C  0.25751104  0.44585062  0.38932240     0.04340
C177        C  0.26568150  0.48066230  0.37927891    -0.09750
H178        H  0.35306139  0.47196072  0.35740068     0.09930
H179        H  0.27726908  0.39237191  0.39558434     0.07460
H180        H  0.24476715  0.50072723  0.37952959     0.07310
O181        O  0.93551402  0.48103683  0.50241766    -0.87130
C182        C  0.00732721  0.49361684  0.58081333     0.88900
Mg183      Mg  0.94212117  0.44317964  0.46127387     1.58150
O184        O  0.00450308  0.56233046  0.51808996    -0.86860
O185        O  0.92537051  0.53854910  0.50890984    -0.74190
C186        C  0.10990317  0.46749860  0.41314518     0.93950
O187        O  0.98734266  0.42355301  0.53816819    -0.74000
O188        O  0.08457057  0.44582758  0.40610217    -0.81510
Mg189      Mg  0.94200840  0.46154428  0.55543458     1.57960
C190        C  0.08884800  0.60662337  0.47214723     0.93880
O191        O  0.89505865  0.49800797  0.57094306    -0.79770
H192        H  0.97687190  0.59969817  0.49163588    -0.05110
C193        C  0.08037966  0.48786408  0.50408862     0.88810
O194        O  0.96110189  0.48816399  0.42354808    -0.74280
O195        O  0.98040782  0.50226822  0.56349128    -0.87040
O196        O  0.07492438  0.60041251  0.50266670    -0.79850
C197        C  0.02865542  0.58394432  0.61044807     0.93990
C198        C  0.88919878  0.52873699  0.58441487     0.93840
Mg199      Mg  0.05709054  0.53454629  0.44307919     1.57950
O200        O  0.10406467  0.49812764  0.42692942    -0.79780
O201        O  0.01181710  0.57244458  0.46048850    -0.74020
O202        O  0.99772485  0.57172296  0.60279361    -0.79860
O203        O  0.90377376  0.41466320  0.54909881    -0.81570
O204        O  0.00156264  0.42090061  0.39556244    -0.79890
C205        C  0.99711556  0.57920157  0.49045384     0.88280
O206        O  0.01868316  0.49342651  0.43435956    -0.87030
O207        O  0.06378748  0.51538727  0.49616230    -0.87140
O208        O  0.07389764  0.45796886  0.48910813    -0.74190
Mg209      Mg  0.96247795  0.55556955  0.55516216     1.57970
O210        O  0.05181084  0.58964540  0.58618271    -0.81570
H211        H  0.89898213  0.50708486  0.47330684    -0.05290
O212        O  0.99483612  0.43367725  0.48058712    -0.86840
H213        H  0.02252816  0.39643260  0.50716132    -0.05120
H214        H  0.99391083  0.52215288  0.39661484    -0.05290
C215        C  0.00222137  0.41686829  0.50826594     0.88260
C216        C  0.91893007  0.50850595  0.49419459     0.88840
C217        C  0.99165940  0.50183660  0.41709388     0.88890
H218        H  0.10043424  0.48910669  0.52488552    -0.05270
O219        O  0.03792109  0.50740460  0.57479616    -0.74300
Mg220      Mg  0.03675106  0.44009716  0.44309300     1.58000
H221        H  0.00494365  0.47300501  0.60098021    -0.05290
C222        C  0.91085144  0.38960599  0.52735026     0.93880
O223        O  0.94694298  0.40597304  0.41436787    -0.81530
C224        C  0.97035987  0.40811697  0.38992713     0.93940
O225        O  0.91461230  0.55008565  0.59198580    -0.81510
Mg226      Mg  0.05706994  0.55298718  0.53789591     1.58180
O227        O  0.92459574  0.39612280  0.49685345    -0.79850
O228        O  0.09532927  0.58153672  0.45018661    -0.81540
O229        O  0.50407799  0.93781381  0.48261821    -0.87130
C230        C  0.58057572  0.01207922  0.49915924     0.88900
Mg231      Mg  0.46244400  0.94467662  0.44508398     1.58150
O232        O  0.51671613  0.00547484  0.56641815    -0.86860
O233        O  0.51006816  0.92662030  0.54011153    -0.74190
C234        C  0.41059871  0.11000444  0.47236110     0.93950
O235        O  0.53835411  0.99362450  0.42729105    -0.74000
O236        O  0.40346771  0.08453737  0.45106865    -0.81510
Mg237      Mg  0.55705094  0.94776697  0.46390831     1.57960
C238        C  0.46849561  0.08939842  0.61106374     0.93880
O239        O  0.57484535  0.90031263  0.49873636    -0.79770
H240        H  0.49086570  0.97687312  0.60363762    -0.05110
C241        C  0.50235085  0.08291535  0.49295579     0.88810
O242        O  0.42490711  0.96145920  0.49101922    -0.74280
O243        O  0.56345258  0.98453122  0.50634188    -0.87040
O244        O  0.49892969  0.07509676  0.60591211    -0.79850
C245        C  0.60739419  0.03122275  0.59127642     0.93990
C246        C  0.58745032  0.89287724  0.52957777     0.93840
Mg247      Mg  0.44159123  0.05745719  0.53896403     1.57950
O248        O  0.42486828  0.10433467  0.50279814    -0.79780
O249        O  0.45930179  0.01208968  0.57699691    -0.74020
O250        O  0.60170412  0.00067445  0.57712290    -0.79860
O251        O  0.55232885  0.91169396  0.41514086    -0.81570
O252        O  0.39533605  0.00189578  0.42826185    -0.79890
C253        C  0.48934391  0.99742720  0.58334587     0.88280
O254        O  0.43470672  0.01909223  0.49792430    -0.87030
O255        O  0.49458992  0.06576395  0.52031673    -0.87140
O256        O  0.48743173  0.07671232  0.46290571    -0.74190
Mg257      Mg  0.55494996  0.96445345  0.55903951     1.57970
O258        O  0.58203125  0.05280926  0.59762235    -0.81570
H259        H  0.47601852  0.89954594  0.50753487    -0.05290
O260        O  0.48060693  0.99811467  0.43733141    -0.86840
H261        H  0.50586420  0.02796891  0.40070846    -0.05120
H262        H  0.39814867  0.99238598  0.52658025    -0.05290
C263        C  0.50786192  0.00716301  0.42070522     0.88260
C264        C  0.49615769  0.92024866  0.50966190     0.88840
C265        C  0.41823692  0.99134515  0.50587197     0.88890
H266        H  0.52283350  0.10332171  0.49449872    -0.05270
O267        O  0.57389796  0.04192523  0.51404265    -0.74300
Mg268      Mg  0.44208256  0.03846379  0.44497822     1.58000
H269        H  0.60123624  0.01091682  0.47902529    -0.05290
C270        C  0.52925938  0.91690699  0.39067188     0.93880
O271        O  0.41488393  0.94988823  0.40755379    -0.81530
C272        C  0.38950491  0.97130524  0.41436850     0.93940
O273        O  0.59258332  0.91710909  0.55292003    -0.81510
Mg274      Mg  0.53546082  0.05875061  0.55906797     1.58180
O275        O  0.49821059  0.92878549  0.39793694    -0.79850
O276        O  0.44724148  0.09593895  0.58540526    -0.81540
C277        C  0.62673384  0.65408087  0.59719669     0.04350
C278        C  0.60093127  0.65372105  0.62457492    -0.11800
C279        C  0.60044747  0.62660310  0.65087279     0.01850
C280        C  0.62679066  0.59973339  0.64961090    -0.10330
C281        C  0.65315904  0.59955211  0.62273649     0.04340
C282        C  0.65263014  0.62686199  0.59673922    -0.09750
H283        H  0.58098851  0.67454167  0.62527096     0.09930
H284        H  0.62671006  0.57885302  0.66961407     0.07460
H285        H  0.67255431  0.62690408  0.57583787     0.07310
C286        C  0.55315392  0.61293142  0.74059470     0.04350
C287        C  0.51916994  0.62515544  0.73232055    -0.11800
C288        C  0.51082071  0.63773613  0.69843120     0.01850
C289        C  0.53705885  0.63812841  0.67168578    -0.10330
C290        C  0.57222035  0.62614029  0.67933557     0.04340
C291        C  0.57997635  0.61355571  0.71436807    -0.09750
H292        H  0.49861822  0.62482524  0.75282574     0.09930
H293        H  0.52990118  0.64745663  0.64523561     0.07460
H294        H  0.60649905  0.60447859  0.72138263     0.07310
C295        C  0.63838277  0.70054596  0.50694395     0.04350
C296        C  0.62881438  0.73530209  0.51543586    -0.11800
C297        C  0.61680267  0.74433881  0.54940962     0.01850
C298        C  0.61636098  0.71817241  0.57650060    -0.10330
C299        C  0.62665948  0.68245290  0.56875100     0.04340
C300        C  0.63693466  0.67388649  0.53326396    -0.09750
H301        H  0.62976194  0.75566667  0.49471428     0.09930
H302        H  0.60796307  0.72565617  0.60312865     0.07460
H303        H  0.64368135  0.64675354  0.52594292     0.07310
C304        C  0.74164723  0.55225484  0.60501318     0.04350
C305        C  0.73309401  0.51742121  0.61460326    -0.11800
C306        C  0.70038680  0.50897639  0.63008359     0.01850
C307        C  0.67392520  0.53542398  0.63283317    -0.10330
C308        C  0.68120821  0.57096797  0.62130002     0.04340
C309        C  0.71602120  0.57922757  0.60859652    -0.09750
H310        H  0.75347514  0.49690073  0.61270749     0.09930
H311        H  0.64826224  0.52826119  0.64409555     0.07460
H312        H  0.72345768  0.60641590  0.60189108     0.07310
O313        O  0.45171218  0.46366222  0.02933296    -0.87130
C314        C  0.55645590  0.44219987  0.01945051     0.88900
Mg315      Mg  0.41867093  0.47117440  0.98395151     1.58150
O316        O  0.53673007  0.52797433  0.04901126    -0.86860
O317        O  0.46785366  0.49217331  0.07822268    -0.74190
C318        C  0.51417190  0.57755040  0.88126134     0.93950
O319        O  0.49284060  0.42126838  0.96799602    -0.74000
O320        O  0.48421307  0.56144932  0.88150208    -0.81510
Mg321      Mg  0.48384753  0.41718841  0.02894629     1.57960
C322        C  0.58140053  0.61671646  0.01219713     0.93880
O323        O  0.47201647  0.41133725  0.08961601    -0.79770
H324        H  0.51284751  0.56060335  0.08392292    -0.05110
C325        C  0.55744019  0.51659302  0.94407817     0.88810
O326        O  0.42333873  0.53218005  0.99258884    -0.74280
O327        O  0.52929688  0.45011798  0.03666961    -0.87040
O328        O  0.58917971  0.58762089  0.02815427    -0.79850
C329        C  0.61867416  0.48604861  0.08054892     0.93990
C330        C  0.48696424  0.41984368  0.11906886     0.93840
Mg331      Mg  0.51834946  0.58075721  0.97127014     1.57950
O332        O  0.53024791  0.58556836  0.91027341    -0.79780
O333        O  0.50951610  0.57734364  0.03232584    -0.74020
O334        O  0.58920882  0.47096254  0.08887403    -0.79860
O335        O  0.43768753  0.38081227  0.01717005    -0.81570
O336        O  0.41193159  0.52758716  0.91262530    -0.79890
C337        C  0.51978434  0.55545258  0.05635865     0.88280
O338        O  0.47249367  0.54801407  0.96432708    -0.87030
O339        O  0.55004307  0.53407783  0.97123386    -0.87140
O340        O  0.53348970  0.50622910  0.92210049    -0.74190
Mg341      Mg  0.52861079  0.48308824  0.08270977     1.57970
O342        O  0.61949823  0.51514758  0.06294920    -0.81570
H343        H  0.41649614  0.48831706  0.06100417    -0.05290
O344        O  0.46493753  0.47030034  0.95150330    -0.86840
H345        H  0.48932422  0.43818078  0.91647761    -0.05120
H346        H  0.44095162  0.58349897  0.98876825    -0.05290
C347        C  0.48225930  0.44309362  0.94405387     0.88260
C348        C  0.44407937  0.48124873  0.05635358     0.88840
C349        C  0.44546789  0.55584026  0.98180206     0.88890
H350        H  0.58493832  0.50931912  0.93927253    -0.05270
O351        O  0.57853784  0.46580332  0.00848331    -0.74300
Mg352      Mg  0.47257111  0.51547838  0.91814871     1.58000
H353        H  0.56107957  0.41448484  0.01277698    -0.05290
C354        C  0.42073199  0.38126321  0.98771649     0.93880
O355        O  0.38216086  0.48276588  0.93796086    -0.81530
C356        C  0.38264588  0.51213188  0.92084717     0.93940
O357        O  0.51590497  0.43775479  0.11999894    -0.81510
Mg358      Mg  0.58311927  0.52677961  0.01673728     1.58180
O359        O  0.41261869  0.41049199  0.97220686    -0.79850
O360        O  0.56497875  0.61680627  0.98243118    -0.81540
O361        O  0.47168632  0.45052994  0.53704530    -0.87130
C362        C  0.48363402  0.55572486  0.55765167     0.88900
Mg363      Mg  0.51580898  0.41663461  0.52835592     1.58150
O364        O  0.45209020  0.53521909  0.47252528    -0.86860
O365        O  0.42238655  0.46720377  0.50967733    -0.74190
C366        C  0.61847941  0.51103037  0.42172118     0.93950
O367        O  0.53480562  0.49119624  0.57828463    -0.74000
O368        O  0.61782826  0.48076960  0.43712391    -0.81510
Mg369      Mg  0.47396991  0.48314180  0.58336680     1.57960
C370        C  0.48913326  0.57897266  0.38303954     0.93880
O371        O  0.41330440  0.47168420  0.58991962    -0.79770
H372        H  0.41646272  0.51138390  0.44033980    -0.05110
C373        C  0.55723296  0.55497344  0.48322922     0.88810
O374        O  0.50618485  0.42165866  0.46759826    -0.74280
O375        O  0.46634631  0.52838960  0.55006330    -0.87040
O376        O  0.47262595  0.58654779  0.41183078    -0.79850
C377        C  0.42284658  0.61813000  0.51388848     0.93990
C378        C  0.38413317  0.48727892  0.58193634     0.93840
Mg379      Mg  0.52896395  0.51627847  0.41921173     1.57950
O380        O  0.58976296  0.52762345  0.41427050    -0.79780
O381        O  0.46774513  0.50795071  0.42288783    -0.74020
O382        O  0.41485882  0.58912133  0.53002516    -0.79860
O383        O  0.48634928  0.43750315  0.62027438    -0.81570
O384        O  0.58644449  0.40917046  0.47130283    -0.79890
C385        C  0.44414310  0.51820979  0.44515796     0.88280
O386        O  0.53530396  0.47031597  0.45169499    -0.87030
O387        O  0.52983519  0.54785759  0.46587284    -0.87140
O388        O  0.57901716  0.53078948  0.49320213    -0.74190
Mg389      Mg  0.41947804  0.52816555  0.51837185     1.57970
O390        O  0.43895331  0.61794628  0.48399737    -0.81570
H391        H  0.43859211  0.41557352  0.51345984    -0.05290
O392        O  0.54950453  0.46233146  0.52924841    -0.86840
H393        H  0.58582743  0.48609095  0.56066995    -0.05120
H394        H  0.50967539  0.43929420  0.41632360    -0.05290
C395        C  0.55797805  0.47966234  0.55625210     0.88260
C396        C  0.44403726  0.44317078  0.52020198     0.88840
C397        C  0.51714640  0.44361388  0.44391922     0.88890
H398        H  0.56247681  0.58242402  0.49066054    -0.05270
O399        O  0.49395764  0.57781664  0.53379148    -0.74300
Mg400      Mg  0.58197030  0.46975165  0.48360948     1.58000
H401        H  0.49076004  0.56059819  0.58524371    -0.05290
C402        C  0.51411949  0.41812959  0.61836781     0.93880
O403        O  0.56052860  0.37930311  0.51571182    -0.81530
C404        C  0.57777286  0.37987780  0.48648200     0.93940
O405        O  0.38378975  0.51686346  0.56515584    -0.81510
Mg406      Mg  0.48480312  0.58140476  0.47279029     1.58180
O407        O  0.52799570  0.40944739  0.58855347    -0.79850
O408        O  0.51916905  0.56336275  0.38380576    -0.81540
O409        O  0.97161675  0.94992154  0.03722355    -0.87130
C410        C  0.98298249  0.05551341  0.05676938     0.88900
Mg411      Mg  0.01621113  0.91612916  0.02946139     1.58150
O412        O  0.95229087  0.03292098  0.97185494    -0.86860
O413        O  0.92207488  0.96613794  0.01007470    -0.74190
C414        C  0.11958195  0.01107915  0.92356186     0.93950
O415        O  0.03393614  0.99085763  0.07929561    -0.74000
O416        O  0.11953208  0.98122380  0.93978390    -0.81510
Mg417      Mg  0.97301730  0.98272582  0.08336137     1.57960
C418        C  0.98886973  0.07537811  0.88153411     0.93880
O419        O  0.91211247  0.97141323  0.08913734    -0.79770
H420        H  0.91726584  0.00759785  0.94013495    -0.05110
C421        C  0.05674573  0.05446176  0.98330665     0.88810
O422        O  0.00755153  0.92041446  0.96861766    -0.74280
O423        O  0.96593998  0.02791026  0.04963844    -0.87040
O424        O  0.97261400  0.08320973  0.91035759    -0.79850
C425        C  0.92176858  0.11710655  0.01030838     0.93990
C426        C  0.88324201  0.98760081  0.08120567     0.93840
Mg427      Mg  0.02981371  0.01409744  0.91929248     1.57950
O428        O  0.09054980  0.02655621  0.91488502    -0.79780
O429        O  0.96868492  0.00472848  0.92295128    -0.74020
O430        O  0.91470255  0.08899596  0.02838789    -0.79860
O431        O  0.98456384  0.93689967  0.12033900    -0.81570
O432        O  0.08825238  0.90907779  0.97376590    -0.79890
C433        C  0.94479165  0.01507245  0.94488872     0.88280
O434        O  0.03669881  0.96907543  0.95271302    -0.87030
O435        O  0.02985514  0.04675771  0.96539562    -0.87140
O436        O  0.07854847  0.03071935  0.99426579    -0.74190
Mg437      Mg  0.91932368  0.02737148  0.01779243     1.57970
O438        O  0.93709186  0.11482100  0.98016895    -0.81570
H439        H  0.93857003  0.91459304  0.01411124    -0.05290
O440        O  0.04951484  0.96209402  0.03048837    -0.86840
H441        H  0.08525199  0.98598783  0.06247191    -0.05120
H442        H  0.01213686  0.93735532  0.91721683    -0.05290
C443        C  0.05750001  0.97945866  0.05761226     0.88260
C444        C  0.94394954  0.94227251  0.02055106     0.88840
C445        C  0.01896586  0.94209215  0.94491062     0.88890
H446        H  0.06144742  0.08208240  0.99046736    -0.05270
O447        O  0.99291569  0.07736447  0.03250541    -0.74300
Mg448      Mg  0.08275347  0.96969202  0.98548173     1.58000
H449        H  0.99003950  0.06095360  0.08426994    -0.05290
C450        C  0.01298201  0.91839256  0.11937333     0.93880
O451        O  0.06145755  0.87895439  0.01752118    -0.81530
C452        C  0.07938197  0.87969421  0.98867579     0.93940
O453        O  0.88361129  0.01738022  0.06478725    -0.81510
Mg454      Mg  0.98415021  0.07946817  0.97122733     1.58180
O455        O  0.02770635  0.90977318  0.08993899    -0.79850
O456        O  0.01890517  0.05971256  0.88209423    -0.81540
C457        C  0.74329097  0.05274792  0.38374445     0.04350
C458        C  0.73552029  0.01853243  0.37163270    -0.11800
C459        C  0.70129374  0.00899949  0.36068388     0.01850
C460        C  0.67376185  0.03434083  0.36217613    -0.10330
C461        C  0.68105625  0.06973931  0.37385080     0.04340
C462        C  0.71631859  0.07861089  0.38476181    -0.09750
H463        H  0.75656212  0.99860453  0.37137231     0.09930
H464        H  0.64702142  0.02641465  0.35436450     0.07460
H465        H  0.72295700  0.10530820  0.39378799     0.07310
C466        C  0.59817417  0.12354960  0.34818193     0.04350
C467        C  0.62535963  0.09763297  0.34805533    -0.11800
C468        C  0.65212525  0.09725580  0.37458271     0.01850
C469        C  0.65137473  0.12353246  0.40153933    -0.10330
C470        C  0.62463806  0.14990067  0.40222855     0.04340
C471        C  0.59812583  0.14944366  0.37546203    -0.09750
H472        H  0.62570930  0.07767495  0.32715895     0.09930
H473        H  0.67182724  0.12358410  0.42199067     0.07460
H474        H  0.57735197  0.16946286  0.37576212     0.07310
C475        C  0.50777138  0.13309564  0.30183326     0.04350
C476        C  0.53418476  0.13300755  0.32846857    -0.11800
C477        C  0.56987827  0.12372257  0.31986352     0.01850
C478        C  0.57810658  0.11428257  0.28406834    -0.10330
C479        C  0.55129369  0.11463488  0.25780561     0.04340
C480        C  0.51675998  0.12454507  0.26690148    -0.09750
H481        H  0.52674171  0.13948518  0.35565417     0.09930
H482        H  0.60496345  0.10674777  0.27655985     0.07460
H483        H  0.49612714  0.12466752  0.24643070     0.07310
C484        C  0.63594512  0.19749725  0.49199455     0.04350
C485        C  0.62449536  0.23162083  0.48307458    -0.11800
C486        C  0.61336795  0.23989826  0.44865949     0.01850
C487        C  0.61344810  0.21346829  0.42215963    -0.10330
C488        C  0.62463306  0.17822277  0.43048752     0.04340
C489        C  0.63596560  0.17051469  0.46592510    -0.09750
H490        H  0.62440023  0.25233903  0.50341917     0.09930
H491        H  0.60514865  0.22054838  0.39534283     0.07460
H492        H  0.64455559  0.14391829  0.47334125     0.07310
C493        C  0.30050200  0.99130786  0.63801681     0.04350
C494        C  0.32823168  0.96609387  0.63665682    -0.11800
C495        C  0.32112440  0.93050337  0.62528929     0.01850
C496        C  0.28583825  0.92132040  0.61475339    -0.10330
C497        C  0.25875519  0.94702187  0.61554775     0.04340
C498        C  0.26635583  0.98145065  0.62710139    -0.09750
H499        H  0.35492328  0.97424766  0.64438662     0.09930
H500        H  0.27919768  0.89445707  0.60624669     0.07460
H501        H  0.24516320  0.00122053  0.62718445     0.07310
C502        C  0.40411363  0.87676627  0.65102212     0.04350
C503        C  0.37727318  0.90306155  0.65072543    -0.11800
C504        C  0.35010027  0.90295403  0.62465670     0.01850
C505        C  0.35026639  0.87590773  0.59843845    -0.10330
C506        C  0.37675716  0.84923652  0.59803646     0.06100
C507        C  0.40356657  0.85011136  0.62447261    -0.09750
H508        H  0.37739795  0.92356502  0.67108546     0.09930
H509        H  0.32950090  0.87549353  0.57832879     0.07460
H510        H  0.42406314  0.82982658  0.62451590     0.07310
C511        C  0.45046786  0.88665742  0.74140230     0.04350
C512        C  0.48489828  0.87608722  0.73286238    -0.11800
C513        C  0.49373364  0.86524463  0.69851725     0.01850
C514        C  0.46772016  0.86576553  0.67149336    -0.10330
C515        C  0.43233737  0.87676351  0.67938604     0.04340
C516        C  0.42398805  0.88713493  0.71487341    -0.09750
H517        H  0.50523392  0.87576879  0.75362930     0.09930
H518        H  0.47509711  0.85763067  0.64474890     0.07460
H519        H  0.39714272  0.89499775  0.72207719     0.07310
C520        C  0.36274137  0.80029231  0.50948974     0.04350
C521        C  0.37455782  0.76630030  0.51834289    -0.11800
C522        C  0.38745063  0.75852209  0.55224946     0.01850
C523        C  0.38810953  0.78527242  0.57851835    -0.10330
C524        C  0.37621278  0.82037099  0.57025773     0.04340
C525        C  0.36374446  0.82759344  0.53512207    -0.09750
H526        H  0.37404497  0.74541162  0.49817373     0.09930
H527        H  0.39763075  0.77856999  0.60501421     0.07460
H528        H  0.35507621  0.85410850  0.52752270     0.07310
O529        O  0.54927097  0.03645672  0.02846796    -0.87130
C530        C  0.44429857  0.05637287  0.01684029     0.88900
Mg531      Mg  0.58266616  0.02921233  0.98335990     1.58150
O532        O  0.46528725  0.97152610  0.04835826    -0.86860
O533        O  0.53290171  0.00896873  0.07790514    -0.74190
C534        C  0.48897398  0.92038557  0.88181414     0.93950
O535        O  0.50828368  0.07841043  0.96625657    -0.74000
O536        O  0.51817181  0.93783671  0.88117313    -0.81510
Mg537      Mg  0.51670593  0.08261157  0.02727036     1.57960
C538        C  0.42263779  0.88152034  0.01242197     0.93880
O539        O  0.52823074  0.08838921  0.08804962    -0.79770
H540        H  0.48988045  0.94004141  0.08397390    -0.05110
C541        C  0.44477420  0.98140305  0.94324886     0.88810
O542        O  0.57911470  0.96824783  0.99242420    -0.74280
O543        O  0.47149699  0.04910096  0.03436629    -0.87040
O544        O  0.41432310  0.91058875  0.02800038    -0.79850
C545        C  0.38198987  0.01211239  0.07756467     0.93990
C546        C  0.51223920  0.08047810  0.11708131     0.93840
Mg547      Mg  0.48514752  0.91819635  0.97166412     1.57950
O548        O  0.47364759  0.91213952  0.91109497    -0.79780
O549        O  0.49375920  0.92263344  0.03269360    -0.74020
O550        O  0.41080972  0.02856834  0.08558173    -0.79860
O551        O  0.56261303  0.11942062  0.01599988    -0.81570
O552        O  0.59033075  0.97245820  0.91260146    -0.79890
C553        C  0.48289379  0.94460600  0.05628880     0.88280
O554        O  0.53019664  0.95163573  0.96421439    -0.87030
O555        O  0.45249252  0.96423623  0.97058647    -0.87140
O556        O  0.46853247  0.99223492  0.92133210    -0.74190
Mg557      Mg  0.47180720  0.01727725  0.08108642     1.57970
O558        O  0.38257995  0.98210740  0.06171380    -0.81570
H559        H  0.58439341  0.01271090  0.06110812    -0.05290
O560        O  0.53649523  0.02934331  0.95071050    -0.86840
H561        H  0.51239238  0.06107252  0.91497810    -0.05120
H562        H  0.56233795  0.91665638  0.98877226    -0.05290
C563        C  0.51916603  0.05641634  0.94270287     0.88260
C564        C  0.55680421  0.01945216  0.05596134     0.88840
C565        C  0.55737407  0.94423438  0.98170428     0.88890
H566        H  0.41713490  0.98808379  0.93828483    -0.05270
O567        O  0.42248281  0.03227336  0.00641868    -0.74300
Mg568      Mg  0.52951871  0.98391104  0.91767674     1.58000
H569        H  0.43931344  0.08389572  0.00958228    -0.05290
C570        C  0.57989541  0.11901012  0.98678713     0.93880
O571        O  0.61906815  0.01821985  0.93732236    -0.81530
C572        C  0.61928208  0.98853406  0.92086421     0.93940
O573        O  0.48248811  0.06397945  0.11702353    -0.81510
Mg574      Mg  0.41914461  0.97125490  0.01573852     1.58180
O575        O  0.58814272  0.08980594  0.97144016    -0.79850
O576        O  0.43926729  0.88148628  0.98285132    -0.81540
C577        C  0.63648960  0.30242574  0.99196303     0.04350
C578        C  0.62649558  0.26782223  0.98291967    -0.11800
C579        C  0.61608937  0.25916017  0.94835949     0.01850
C580        C  0.61585856  0.28562040  0.92178510    -0.10330
C581        C  0.62614757  0.32117142  0.93021274     0.04340
C582        C  0.63651949  0.32930590  0.96578163    -0.09750
H583        H  0.62649254  0.24716869  0.00338689     0.09930
H584        H  0.60787047  0.27842932  0.89489984     0.07460
H585        H  0.64411664  0.35624392  0.97324346     0.07310
C586        C  0.62571850  0.34963130  0.90214056     0.04350
C587        C  0.65221387  0.37644533  0.90144823    -0.11800
C588        C  0.65212971  0.40331931  0.87504659     0.01850
C589        C  0.62495709  0.40299359  0.84893387    -0.10330
C590        C  0.59816058  0.37644110  0.84901927     0.04340
C591        C  0.59881395  0.35002484  0.87582631    -0.09750
H592        H  0.67305792  0.37639024  0.92153560     0.09930
H593        H  0.62473106  0.42339484  0.82837929     0.07460
H594        H  0.57830915  0.32954370  0.87609793     0.07310
C595        C  0.50817809  0.36377355  0.80255830     0.04350
C596        C  0.51734076  0.37184271  0.76746658    -0.11800
C597        C  0.55198731  0.38149692  0.75822398     0.01850
C598        C  0.57838967  0.38382763  0.78479240    -0.10330
C599        C  0.56984941  0.37572456  0.82082477     0.04340
C600        C  0.53422868  0.36592835  0.82949456    -0.09750
H601        H  0.49692629  0.37068903  0.74681417     0.09930
H602        H  0.60536726  0.39118729  0.77726989     0.07460
H603        H  0.52679043  0.35985774  0.85681329     0.07310
C604        C  0.69891746  0.49369740  0.86586740     0.04350
C605        C  0.67206809  0.46740285  0.86580663    -0.11800
C606        C  0.68050792  0.43154890  0.87473872     0.01850
C607        C  0.71641662  0.42282162  0.88311279    -0.10330
C608        C  0.74295805  0.44942014  0.88254601     0.04340
C609        C  0.73376846  0.48446477  0.87459777    -0.09750
H610        H  0.64498638  0.47489553  0.85898038     0.09930
H611        H  0.72386526  0.39556993  0.88935066     0.07460
H612        H  0.75442213  0.50496913  0.87442303     0.07310
C613        C  0.38688282  0.74133954  0.05135957     0.04350
C614        C  0.38668006  0.71523170  0.07823369    -0.11800
C615        C  0.37522416  0.67989958  0.07041029     0.01850
C616        C  0.36379574  0.67175733  0.03511739    -0.10330
C617        C  0.36382500  0.69844984  0.00872469     0.04340
C618        C  0.37532198  0.73273355  0.01716462    -0.09750
H619        H  0.39527906  0.72258163  0.10487979     0.09930
H620        H  0.35527372  0.64500352  0.02801287     0.07460
H621        H  0.37546999  0.75321539  0.99652423     0.07310
C622        C  0.49270641  0.63966088  0.19885017     0.04350
C623        C  0.48432937  0.62951715  0.23356038    -0.11800
C624        C  0.45072404  0.61623650  0.24225949     0.01850
C625        C  0.42388788  0.61484773  0.21606162    -0.10330
C626        C  0.43136233  0.62593070  0.18052014     0.04340
C627        C  0.46650511  0.63761107  0.17207491    -0.09750
H628        H  0.50499777  0.63035597  0.25397744     0.09930
H629        H  0.39764138  0.60512744  0.22345567     0.07460
H630        H  0.47366456  0.64481800  0.14496730     0.07310
C631        C  0.34877555  0.59843767  0.12636186     0.04350
C632        C  0.37595381  0.59879127  0.15246912    -0.11800
C633        C  0.40283008  0.62528788  0.15237694     0.01850
C634        C  0.40221556  0.65153298  0.12534749    -0.10330
C635        C  0.37543809  0.65175624  0.09886291     0.04340
C636        C  0.34884698  0.62507908  0.09975756    -0.09750
H637        H  0.37613403  0.57830867  0.17291069     0.09930
H638        H  0.42271002  0.67198488  0.12494907     0.07460
H639        H  0.32809442  0.62500084  0.07959892     0.07310
C640        C  0.30268239  0.50780027  0.13531272     0.04350
C641        C  0.32914998  0.53441796  0.13591235    -0.11800
C642        C  0.32050338  0.57010578  0.12663069     0.01850
C643        C  0.28481365  0.57823247  0.11676198    -0.10330
C644        C  0.25869053  0.55123249  0.11645732     0.04340
C645        C  0.26783832  0.51659559  0.12617292    -0.09750
H646        H  0.35627010  0.52713416  0.14281347     0.09930
H647        H  0.27732429  0.60514656  0.10925849     0.07460
H648        H  0.24748981  0.49579299  0.12580961     0.07310
O649        O  0.02869722  0.54898578  0.03541317    -0.87130
C650        C  0.01849958  0.44398037  0.05645332     0.88900
Mg651      Mg  0.98310998  0.58152193  0.02733314     1.58150
O652        O  0.05042486  0.46466525  0.97156085    -0.86860
O653        O  0.07845855  0.53332286  0.00849685    -0.74190
C654        C  0.88381983  0.48503242  0.91775158     0.93950
O655        O  0.96718283  0.50723229  0.07762562    -0.74000
O656        O  0.88189365  0.51303417  0.93687031    -0.81510
Mg657      Mg  0.02802158  0.51678251  0.08199617     1.57960
C658        C  0.01624077  0.42063331  0.88158000     0.93880
O659        O  0.08873207  0.52939865  0.08808661    -0.79770
H660        H  0.08579115  0.49013281  0.94040771    -0.05110
C661        C  0.94567288  0.44210123  0.98034547     0.88810
O662        O  0.99223227  0.57767133  0.96654859    -0.74280
O663        O  0.03588853  0.47132940  0.04910264    -0.87040
O664        O  0.03087725  0.41221278  0.91119431    -0.79850
C665        C  0.08114940  0.38241526  0.01354592     0.93990
C666        C  0.11785666  0.51352381  0.08060356     0.93840
Mg667      Mg  0.97394144  0.48346567  0.91707462     1.57950
O668        O  0.91363140  0.47095706  0.90941495    -0.79780
O669        O  0.03459730  0.49331597  0.92264124    -0.74020
O670        O  0.08874623  0.41167892  0.02927722    -0.79860
O671        O  0.01586370  0.56286891  0.11804530    -0.81570
O672        O  0.91099521  0.58662963  0.97102712    -0.79890
C673        C  0.05821088  0.48258587  0.94471613     0.88280
O674        O  0.96476847  0.52816563  0.95029401    -0.87030
O675        O  0.97282651  0.45039715  0.96319217    -0.87140
O676        O  0.92353216  0.46538615  0.99135064    -0.74190
Mg677      Mg  0.08268077  0.47231796  0.01750722     1.57970
O678        O  0.06423337  0.38186813  0.98407134    -0.81570
H679        H  0.06086296  0.58456035  0.01144103    -0.05290
O680        O  0.95118051  0.53461102  0.02804587    -0.86840
H681        H  0.91587856  0.51018972  0.06010260    -0.05120
H682        H  0.98859128  0.56078876  0.91508825    -0.05290
C683        C  0.94347011  0.51743336  0.05539487     0.88260
C684        C  0.05611665  0.55690498  0.01850563     0.88840
C685        C  0.98169966  0.55572829  0.94270729     0.88890
H686        H  0.94119848  0.41431618  0.98708106    -0.05270
O687        O  0.00839021  0.42195253  0.03247270    -0.74300
Mg688      Mg  0.91828798  0.52611382  0.98268475     1.58000
H689        H  0.01101660  0.43907783  0.08394362    -0.05290
C690        C  0.98640610  0.57963782  0.11725836     0.93880
O691        O  0.93682487  0.61727660  0.01504525    -0.81530
C692        C  0.91887995  0.61614310  0.98618191     0.93940
O693        O  0.11798711  0.48370548  0.06440693    -0.81510
Mg694      Mg  0.01825088  0.41793913  0.97163216     1.58180
O695        O  0.97098064  0.58738442  0.08786897    -0.79850
O696        O  0.98737011  0.43836329  0.88026250    -0.81540
C697        C  0.90106361  0.12417233  0.65198588     0.04350
C698        C  0.87392920  0.09785024  0.65152159    -0.11800
C699        C  0.84636325  0.09859649  0.62584310     0.01850
C700        C  0.84654633  0.12587435  0.59987148    -0.10330
C701        C  0.87359879  0.15215497  0.59923035     0.04340
C702        C  0.90044281  0.15117868  0.62564325    -0.09750
H703        H  0.87410722  0.07666188  0.67123962     0.09930
H704        H  0.82558869  0.12650260  0.57991264     0.07460
H705        H  0.92103037  0.17154678  0.62555294     0.07310
C706        C  0.94932721  0.11110996  0.74121111     0.04350
C707        C  0.92237818  0.11120480  0.71511551    -0.11800
C708        C  0.92981494  0.12370476  0.68002097     0.01850
C709        C  0.96493905  0.13602725  0.67214028    -0.10330
C710        C  0.99127129  0.13668199  0.69894350     0.04340
C711        C  0.98310500  0.12409349  0.73291378    -0.09750
H712        H  0.89597655  0.10177768  0.72232856     0.09930
H713        H  0.97193225  0.14503920  0.64553882     0.07460
H714        H  0.00375666  0.12391496  0.75336359     0.07310
C715        C  0.79868628  0.00828127  0.63149910     0.04350
C716        C  0.76363316  0.01845898  0.62487626    -0.11800
C717        C  0.75480898  0.05381049  0.61778128     0.01850
C718        C  0.78158935  0.08020889  0.61836858    -0.10330
C719        C  0.81751827  0.07077069  0.62589589     0.04340
C720        C  0.82576151  0.03438778  0.63262276    -0.09750
H721        H  0.74272579  0.99822366  0.62453769     0.09930
H722        H  0.77447869  0.10770719  0.61285896     0.07460
H723        H  0.85302487  0.02626080  0.63779644     0.07310
C724        C  0.86543426  0.19773470  0.50822551     0.04350
C725        C  0.87707092  0.23203295  0.51643851    -0.11800
C726        C  0.88706770  0.24139023  0.55098314     0.01850
C727        C  0.88541925  0.21567664  0.57835739    -0.10330
C728        C  0.87423983  0.18018760  0.57061388     0.04340
C729        C  0.86400661  0.17158178  0.53509616    -0.09750
H730        H  0.87762968  0.25219315  0.49549662     0.09930
H731        H  0.89271570  0.22334165  0.60530721     0.07460
H732        H  0.85525471  0.14483596  0.52821860     0.07310
C733        C  0.00810774  0.13522232  0.19797843     0.04350
C734        C  0.03445450  0.13536242  0.17127601    -0.11800
C735        C  0.07011029  0.12560153  0.17973674     0.01850
C736        C  0.07845790  0.11604130  0.21550824    -0.10330
C737        C  0.05177556  0.11629544  0.24181674     0.04340
C738        C  0.01708903  0.12565030  0.23271001    -0.09750
H739        H  0.02708523  0.14270464  0.14425408     0.09930
H740        H  0.10542959  0.10884486  0.22304209     0.07460
H741        H  0.99656861  0.12565879  0.25324311     0.07310
C742        C  0.11850322  0.24215452  0.05110697     0.04350
C743        C  0.11707991  0.21565479  0.07766521    -0.11800
C744        C  0.12593797  0.17980494  0.06928157     0.01850
C745        C  0.13538061  0.17126916  0.03358543    -0.10330
C746        C  0.13670709  0.19816490  0.00740971     0.04340
C747        C  0.12881100  0.23320914  0.01658624    -0.09750
H748        H  0.10921089  0.22303061  0.10449818     0.09930
H749        H  0.14122250  0.14397701  0.02603075     0.07460
H750        H  0.12938123  0.25378177  0.99605407     0.07310
C751        C  0.15185891  0.09808836  0.12496872     0.04350
C752        C  0.12519068  0.09894715  0.15155404    -0.11800
C753        C  0.09841948  0.12534130  0.15147024     0.01850
C754        C  0.09887216  0.15151251  0.12436009    -0.10330
C755        C  0.12526989  0.15147266  0.09755574     0.04340
C756        C  0.15137476  0.12447125  0.09803062    -0.09750
H757        H  0.12520677  0.07897369  0.17248150     0.09930
H758        H  0.07861529  0.17207353  0.12415888     0.07460
H759        H  0.17149512  0.12415536  0.07730800     0.07310
C760        C  0.24141964  0.05062984  0.11295427     0.04350
C761        C  0.21524405  0.07738267  0.11277939    -0.11800
C762        C  0.18019652  0.06981048  0.12538533     0.01850
C763        C  0.17252048  0.03486365  0.13828141    -0.10330
C764        C  0.19932719  0.00875797  0.13890501     0.04340
C765        C  0.23321177  0.01695540  0.12625202    -0.09750
H766        H  0.22234616  0.10370437  0.10300353     0.09930
H767        H  0.14604128  0.02775740  0.14753336     0.07460
H768        H  0.25370544  0.99644868  0.12649209     0.07310
O769        O  0.23094567  0.18567065  0.74675820    -0.87130
C770        C  0.24741870  0.25881454  0.66950711     0.88900
Mg771      Mg  0.19289012  0.19337690  0.78775167     1.58150
O772        O  0.31495444  0.25327730  0.73328193    -0.86860
O773        O  0.28839063  0.17461122  0.74101625    -0.74190
C774        C  0.22202357  0.35929593  0.83813189     0.93950
O775        O  0.17588081  0.24055479  0.71121987    -0.74000
O776        O  0.20007232  0.33425202  0.84515577    -0.81510
Mg777      Mg  0.21252533  0.19438173  0.69352072     1.57960
C778        C  0.36061303  0.33677199  0.78086348     0.93880
O779        O  0.24754619  0.14667795  0.67691892    -0.79770
H780        H  0.35199049  0.22475266  0.75924046    -0.05110
C781        C  0.24229752  0.33103524  0.74710712     0.88810
O782        O  0.23858984  0.21038292  0.82576201    -0.74280
O783        O  0.25475832  0.23146708  0.68678168    -0.87040
O784        O  0.35448228  0.32313132  0.75020687    -0.79850
C785        C  0.33918936  0.27790564  0.64204776     0.93990
C786        C  0.27835749  0.13967539  0.66418458     0.93840
Mg787      Mg  0.28808653  0.30558098  0.80826977     1.57950
O788        O  0.25258560  0.35285408  0.82461781    -0.79780
O789        O  0.32547241  0.25991711  0.79080154    -0.74020
O790        O  0.32531360  0.24732827  0.64840042    -0.79860
O791        O  0.16401650  0.15787476  0.69857058    -0.81570
O792        O  0.17643153  0.25139937  0.85443833    -0.79890
C793        C  0.33183564  0.24531623  0.76071887     0.88280
O794        O  0.24640678  0.26778238  0.81522055    -0.87030
O795        O  0.26940568  0.31375797  0.75509395    -0.87140
O796        O  0.21211615  0.32501801  0.76173932    -0.74190
Mg797      Mg  0.30736352  0.21182074  0.69555070     1.57970
O798        O  0.34549842  0.30010747  0.66702238    -0.81570
H799        H  0.25587500  0.14815869  0.77561617    -0.05290
O800        O  0.18600342  0.24650791  0.76890402    -0.86840
H801        H  0.14964460  0.27583328  0.74288295    -0.05120
H802        H  0.27433694  0.24145077  0.85250733    -0.05290
C803        C  0.16948018  0.25496175  0.74139136     0.88260
C804        C  0.25798376  0.16843772  0.75508592     0.88840
C805        C  0.25381766  0.24024593  0.83217243     0.88890
H806        H  0.24416374  0.35132128  0.72656452    -0.05270
O807        O  0.26223436  0.28884577  0.67597327    -0.74300
Mg808      Mg  0.19372453  0.28737439  0.80722903     1.58000
H809        H  0.22716061  0.25731809  0.64892507    -0.05290
C810        C  0.13912384  0.16440142  0.72072513     0.93880
O811        O  0.15467715  0.19978374  0.83435459    -0.81530
C812        C  0.16169214  0.22107257  0.85988335     0.93940
O813        O  0.30114845  0.16429211  0.65825641    -0.81510
Mg814      Mg  0.30754971  0.30633464  0.71401155     1.58180
O815        O  0.14584073  0.17737729  0.75153233    -0.79850
O816        O  0.33548307  0.34321024  0.80272297    -0.81540
O817        O  0.70093226  0.22102411  0.21447748    -0.87130
C818        C  0.80594154  0.23130079  0.19332712     0.88900
Mg819      Mg  0.66786406  0.26615545  0.22232587     1.58150
O820        O  0.78581761  0.20053779  0.27882170    -0.86860
O821        O  0.71693531  0.17187617  0.24259398    -0.74190
C822        C  0.76351645  0.36741676  0.32954508     0.93950
O823        O  0.74249563  0.28296998  0.17267042    -0.74000
O824        O  0.73364754  0.36757633  0.31337325    -0.81510
Mg825      Mg  0.73340482  0.22208659  0.16810774     1.57960
C826        C  0.83015187  0.23649025  0.36790162     0.93880
O827        O  0.72139368  0.16157059  0.16176398    -0.79770
H828        H  0.76160874  0.16514804  0.31099704    -0.05110
C829        C  0.80665815  0.30559222  0.26820774     0.88810
O830        O  0.67220825  0.25689741  0.28323984    -0.74280
O831        O  0.77865519  0.21404116  0.20112393    -0.87040
O832        O  0.83815656  0.22104164  0.33863856    -0.79850
C833        C  0.86781450  0.16972125  0.23672758     0.93990
C834        C  0.73625539  0.13209287  0.17002206     0.93840
Mg835      Mg  0.76708381  0.27751718  0.33210090     1.57950
O836        O  0.77923697  0.33828657  0.33747099    -0.79780
O837        O  0.75809312  0.21653994  0.32811297    -0.74020
O838        O  0.83839416  0.16145705  0.22154065    -0.79860
O839        O  0.68757225  0.23420343  0.13159955    -0.81570
O840        O  0.66116777  0.33701838  0.27923024    -0.79890
C841        C  0.76861379  0.19280521  0.30612645     0.88280
O842        O  0.72149527  0.28491426  0.29924384    -0.87030
O843        O  0.79915093  0.27826383  0.28554423    -0.87140
O844        O  0.78280702  0.32759159  0.25793430    -0.74190
Mg845      Mg  0.77773873  0.16752890  0.23357349     1.57970
O846        O  0.86863889  0.18714176  0.26588905    -0.81570
H847        H  0.66561594  0.18895298  0.23890684    -0.05290
O848        O  0.71418634  0.29879730  0.22167017    -0.86840
H849        H  0.73879177  0.33429262  0.18992132    -0.05120
H850        H  0.68967119  0.26024492  0.33458820    -0.05290
C851        C  0.73169615  0.30662309  0.19459361     0.88260
C852        C  0.69322591  0.19378436  0.23185829     0.88840
C853        C  0.69432395  0.26743805  0.30697073     0.88890
H854        H  0.83419210  0.31052562  0.26095129    -0.05270
O855        O  0.82800953  0.24199417  0.21701974    -0.74300
Mg856      Mg  0.72188061  0.33152233  0.26714421     1.58000
H857        H  0.81069453  0.23824629  0.16566178    -0.05290
C858        C  0.67024338  0.26333646  0.13238622     0.93880
O859        O  0.63139431  0.31193541  0.23430462    -0.81530
C860        C  0.63188154  0.32889146  0.26372693     0.93940
O861        O  0.76518807  0.13099193  0.18781976    -0.81510
Mg862      Mg  0.83225058  0.23304314  0.27791676     1.58180
O863        O  0.66194161  0.27837330  0.16176483    -0.79850
O864        O  0.81331427  0.26592657  0.36834314    -0.81540
C865        C  0.13763583  0.69732834  0.99191927     0.04350
C866        C  0.12673255  0.73165154  0.98316061    -0.11800
C867        C  0.11579453  0.74029011  0.94879023     0.01850
C868        C  0.11576291  0.71403288  0.92207253    -0.10330
C869        C  0.12659705  0.67859459  0.93020027     0.04340
C870        C  0.13757323  0.67053393  0.96567301    -0.09750
H871        H  0.12668035  0.75219603  0.00368587     0.09930
H872        H  0.10757157  0.72137436  0.89529714     0.07460
H873        H  0.14567936  0.64376771  0.97302831     0.07310
C874        C  0.12620889  0.65025978  0.90190015     0.04350
C875        C  0.09974118  0.65019266  0.87509983    -0.11800
C876        C  0.09875908  0.62370443  0.84832815     0.01850
C877        C  0.12524497  0.59703657  0.84861312    -0.10330
C878        C  0.15227234  0.59656324  0.87489443     0.04340
C879        C  0.15229098  0.62324584  0.90145808    -0.09750
H880        H  0.07973326  0.67094296  0.87514137     0.09930
H881        H  0.12491303  0.57655605  0.82824561     0.07460
H882        H  0.17281727  0.62306742  0.92183552     0.07310
C883        C  0.04950070  0.61195215  0.75913392     0.04350
C884        C  0.01629295  0.62584453  0.76797380    -0.11800
C885        C  0.00892652  0.63818044  0.80212563     0.01850
C886        C  0.03537796  0.63684205  0.82858816    -0.10330
C887        C  0.07003344  0.62399352  0.82028589     0.04340
C888        C  0.07682719  0.61166046  0.78497984    -0.09750
H889        H  0.99549777  0.62705508  0.74771311     0.09930
H890        H  0.02877585  0.64574958  0.85527944     0.07460
H891        H  0.10295196  0.60194242  0.77747687     0.07310
C892        C  0.19973170  0.50724485  0.86188693     0.04350
C893        C  0.23430280  0.51636466  0.87202985    -0.11800
C894        C  0.24277591  0.55056904  0.88371111     0.01850
C895        C  0.21623690  0.57689884  0.88472039    -0.10330
C896        C  0.18069499  0.56850090  0.87432365     0.04340
C897        C  0.17264583  0.53305310  0.86333171    -0.09750
H898        H  0.25499560  0.49607456  0.87166647     0.09930
H899        H  0.22341436  0.60357951  0.89338252     0.07460
H900        H  0.14566329  0.52543358  0.85606819     0.07310
O901        O  0.21406826  0.70098780  0.22133822    -0.87130
C902        C  0.19411242  0.80593287  0.23258266     0.88900
Mg903      Mg  0.22088856  0.66744282  0.26649532     1.58150
O904        O  0.27908446  0.78481633  0.20202187    -0.86860
O905        O  0.24197526  0.71722065  0.17213294    -0.74190
C906        C  0.32872803  0.76046472  0.36901682     0.93950
O907        O  0.17190445  0.74200473  0.28314108    -0.74000
O908        O  0.31245305  0.73059855  0.36875397    -0.81510
Mg909      Mg  0.16798000  0.73362135  0.22207811     1.57960
C910        C  0.36882142  0.82704008  0.23844954     0.93880
O911        O  0.16254645  0.72215817  0.16134506    -0.79770
H912        H  0.31086323  0.76038825  0.16670675    -0.05110
C913        C  0.26860406  0.80507743  0.30702234     0.88810
O914        O  0.28189438  0.67080759  0.25784108    -0.74280
O915        O  0.20149757  0.77875806  0.21512310    -0.87040
O916        O  0.33987522  0.83542463  0.22260238    -0.79850
C917        C  0.23853067  0.86814503  0.17244939     0.93990
C918        C  0.17078161  0.73783849  0.13221320     0.93840
Mg919      Mg  0.33184907  0.76494072  0.27923684     1.57950
O920        O  0.33692949  0.77650543  0.34006213    -0.79780
O921        O  0.32796466  0.75645765  0.21814382    -0.74020
O922        O  0.22235869  0.83925833  0.16412876    -0.79860
O923        O  0.13112781  0.68773458  0.23302415    -0.81570
O924        O  0.27727532  0.65919082  0.33736949    -0.79890
C925        C  0.30609892  0.76729513  0.19434680     0.88280
O926        O  0.29839093  0.71971782  0.28607386    -0.87030
O927        O  0.28580858  0.79746644  0.27975164    -0.87140
O928        O  0.25789016  0.78120702  0.32893048    -0.74190
Mg929      Mg  0.23373001  0.77831425  0.16872295     1.57970
O930        O  0.26847474  0.86769256  0.18848269    -0.81570
H931        H  0.23789626  0.66572130  0.18905394    -0.05290
O932        O  0.22073131  0.71354319  0.29915467    -0.86840
H933        H  0.18895489  0.73782406  0.33457035    -0.05120
H934        H  0.33344033  0.68760982  0.26175993    -0.05290
C935        C  0.19372098  0.73102437  0.30690125     0.88260
C936        C  0.23122224  0.69336358  0.19403620     0.88840
C937        C  0.30586198  0.69256487  0.26864444     0.88890
H938        H  0.26188619  0.83271033  0.31199207    -0.05270
O939        O  0.21812663  0.82769032  0.24332375    -0.74300
Mg940      Mg  0.26612103  0.72008479  0.33238193     1.58000
H941        H  0.16655649  0.81091975  0.23953723    -0.05290
C942        C  0.13127517  0.67072523  0.26243860     0.93880
O943        O  0.23139810  0.63078927  0.31258571    -0.81530
C944        C  0.26100071  0.63032436  0.32922169     0.93940
O945        O  0.18754800  0.76745845  0.13204922    -0.81510
Mg946      Mg  0.27914816  0.83096100  0.23454127     1.58180
O947        O  0.16031791  0.66234190  0.27806197    -0.79850
O948        O  0.36858274  0.81099084  0.26840033    -0.81540
C949        C  0.69850442  0.99159397  0.13604378     0.04350
C950        C  0.73315189  0.98320093  0.12603157    -0.11800
C951        C  0.74237520  0.94876984  0.11587467     0.01850
C952        C  0.71652571  0.92151219  0.11653486    -0.10330
C953        C  0.68095433  0.92921575  0.12708634     0.04340
C954        C  0.67222327  0.96477497  0.13681185    -0.09750
H955        H  0.75335260  0.00415133  0.12556974     0.09930
H956        H  0.72416701  0.89471776  0.10886741     0.07460
H957        H  0.64522911  0.97179920  0.14433523     0.07310
C958        C  0.65298541  0.90051335  0.12733721     0.04350
C959        C  0.65286330  0.87367704  0.10098699    -0.11800
C960        C  0.62654390  0.84668378  0.10055018     0.01850
C961        C  0.60020477  0.84666792  0.12741149    -0.10330
C962        C  0.59945533  0.87330137  0.15406058     0.04340
C963        C  0.62606379  0.90006824  0.15362726    -0.09750
H964        H  0.67329569  0.87391892  0.08056149     0.09930
H965        H  0.58002730  0.82590586  0.12737669     0.07460
H966        H  0.62579194  0.92079192  0.17375021     0.07310
C967        C  0.63609464  0.80182156  0.00943384     0.04350
C968        C  0.62519675  0.76722491  0.01744804    -0.11800
C969        C  0.61485313  0.75764450  0.05179404     0.01850
C970        C  0.61539175  0.78325837  0.07918013    -0.10330
C971        C  0.62625208  0.81891223  0.07173790     0.04340
C972        C  0.63665079  0.82787503  0.03634689    -0.09750
H973        H  0.62492070  0.74718350  0.99643830     0.09930
H974        H  0.60763348  0.77530717  0.10591323     0.07460
H975        H  0.64482397  0.85482761  0.02954150     0.07310
C976        C  0.50902585  0.86066650  0.19963425     0.04350
C977        C  0.51646831  0.87338134  0.23366795    -0.11800
C978        C  0.54997879  0.88679378  0.24262229     0.01850
C979        C  0.57747517  0.88618592  0.21706113    -0.10330
C980        C  0.57062291  0.87342985  0.18189327     0.04340
C981        C  0.53574237  0.86096097  0.17345293    -0.09750
H982        H  0.49550394  0.87284418  0.25373492     0.09930
H983        H  0.60377765  0.89561909  0.22465331     0.07460
H984        H  0.52914198  0.85171167  0.14684132     0.07310
C985        C  0.87455524  0.65248940  0.40094371     0.04350
C986        C  0.84843080  0.62528790  0.40085297    -0.11800
C987        C  0.84794372  0.59868339  0.37424242     0.01850
C988        C  0.87426711  0.59963774  0.34742022    -0.10330
C989        C  0.90078577  0.62640477  0.34693463     0.04340
C990        C  0.90054344  0.65274420  0.37378519    -0.09750
H991        H  0.82842662  0.62479092  0.42168839     0.09930
H992        H  0.87421682  0.57934627  0.32685110     0.07460
H993        H  0.92080514  0.67345375  0.37364897     0.07310
C994        C  0.99080298  0.63671196  0.30044843     0.04350
C995        C  0.98212807  0.62601439  0.26598342    -0.11800
C996        C  0.94762452  0.61555619  0.25709233     0.01850
C997        C  0.92080111  0.61580728  0.28321749    -0.10330
C998        C  0.92896515  0.62653013  0.31868383     0.04340
C999        C  0.96445788  0.63700864  0.32701453    -0.09750
H1000       H  0.00276185  0.62580163  0.24556759     0.09930
H1001       H  0.89394304  0.60788574  0.27581633     0.07460
H1002       H  0.97176034  0.64500486  0.35386323     0.07310
C1003       C  0.86599268  0.69749339  0.49194301     0.04350
C1004       C  0.86538135  0.67132752  0.46517262    -0.11800
C1005       C  0.87493548  0.68033255  0.42959381     0.01850
C1006       C  0.88496208  0.71612769  0.42175372    -0.10330
C1007       C  0.88538533  0.74191390  0.44896115     0.04340
C1008       C  0.87591679  0.73230248  0.48355456    -0.09750
H1009       H  0.85785731  0.64424856  0.47222619     0.09930
H1010       H  0.89213249  0.72404182  0.39484176     0.07460
H1011       H  0.87617576  0.75245098  0.50445945     0.07310
C1012       C  0.80210891  0.50800185  0.36313698     0.04350
C1013       C  0.76793629  0.51587657  0.37501769    -0.11800
C1014       C  0.75915301  0.54983955  0.38696446     0.01850
C1015       C  0.78492509  0.57711721  0.38648200    -0.10330
C1016       C  0.82011650  0.56986188  0.37452397     0.04340
C1017       C  0.82846632  0.53473714  0.36295998    -0.09750
H1018       H  0.74770688  0.49494969  0.37521913     0.09930
H1019       H  0.77744626  0.60360237  0.39528250     0.07460
H1020       H  0.85514545  0.52799593  0.35417923     0.07310
C1021       C  0.05253473  0.87996853  0.25865397     0.04350
C1022       C  0.01797759  0.86976869  0.26771201    -0.11800
C1023       C  0.00891418  0.86135491  0.30270772     0.01850
C1024       C  0.03519953  0.86229397  0.32948060    -0.10330
C1025       C  0.07089618  0.87181850  0.32083222     0.04340
C1026       C  0.07920105  0.88112154  0.28503542    -0.09750
H1027       H  0.99738386  0.86941396  0.24720624     0.09930
H1028       H  0.02777975  0.85595645  0.35674490     0.07460
H1029       H  0.10607130  0.88895905  0.27761170     0.07310
C1030       C  0.09924279  0.87194616  0.34902264     0.04350
C1031       C  0.09967312  0.84518862  0.37550302    -0.11800
C1032       C  0.12601694  0.84476745  0.40236194     0.01850
C1033       C  0.15233588  0.87183488  0.40241688    -0.10330
C1034       C  0.15258925  0.89901969  0.37625913     0.04340
C1035       C  0.12589765  0.89865670  0.34962532    -0.09750
H1036       H  0.07924382  0.82462321  0.37527652     0.09930
H1037       H  0.17262046  0.87185496  0.42305790     0.07460
H1038       H  0.12577466  0.91929580  0.32932217     0.07310
C1039       C  0.24171585  0.94761441  0.38928410     0.04350
C1040       C  0.21603729  0.92018645  0.38754733    -0.11800
C1041       C  0.18041588  0.92794212  0.37712623     0.01850
C1042       C  0.17167038  0.96360516  0.36760644    -0.10330
C1043       C  0.19775847  0.99064160  0.36929396     0.04340
C1044       C  0.23217530  0.98238549  0.38044048    -0.09750
H1045       H  0.22388658  0.89311836  0.39406238     0.09930
H1046       H  0.14488505  0.97046591  0.35914812     0.07460
H1047       H  0.25232579  0.00336518  0.38120276     0.07310
C1048       C  0.13289670  0.79872056  0.49315260     0.04350
C1049       C  0.12233963  0.76417443  0.48443830    -0.11800
C1050       C  0.11379542  0.75480430  0.44952948     0.01850
C1051       C  0.11543681  0.78079270  0.42241346    -0.10330
C1052       C  0.12544627  0.81650360  0.43071732     0.04340
C1053       C  0.13452584  0.82506965  0.46650649    -0.09750
H1054       H  0.12163336  0.74384641  0.50521091     0.09930
H1055       H  0.10907994  0.77316957  0.39521456     0.07460
H1056       H  0.14250352  0.85194850  0.47378579     0.07310
C1057       C  0.26004441  0.05045706  0.89195935     0.04350
C1058       C  0.28662156  0.07693582  0.89079720    -0.11800
C1059       C  0.32123632  0.06869676  0.87771269     0.01850
C1060       C  0.32782949  0.03359577  0.86487152    -0.10330
C1061       C  0.30054342  0.00775351  0.86549545     0.04340
C1062       C  0.26747236  0.01628248  0.87981788    -0.09750
H1063       H  0.28009445  0.10365009  0.89966230     0.09930
H1064       H  0.35372363  0.02626418  0.85441351     0.07460
H1065       H  0.24655151  0.99605208  0.88048470     0.07310
C1066       C  0.40349929  0.12314252  0.84971877     0.04350
C1067       C  0.37615859  0.09715874  0.85014930    -0.11800
C1068       C  0.35006852  0.09663698  0.87727324     0.01850
C1069       C  0.35158978  0.12304418  0.90406294    -0.10330
C1070       C  0.37830938  0.14964972  0.90402335     0.04340
C1071       C  0.40426563  0.14925023  0.87679481    -0.09750
H1072       H  0.37528582  0.07726847  0.82919897     0.09930
H1073       H  0.33175830  0.12302778  0.92505936     0.07460
H1074       H  0.42510145  0.16940179  0.87658485     0.07310
C1075       C  0.38779108  0.24029151  0.94990197     0.04350
C1076       C  0.38843496  0.21369281  0.92350249    -0.11800
C1077       C  0.37869912  0.17802620  0.93217151     0.01850
C1078       C  0.36867138  0.16989218  0.96786069    -0.10330
C1079       C  0.36826483  0.19687546  0.99385500     0.04340
C1080       C  0.37773806  0.23158012  0.98457002    -0.09750
H1081       H  0.39601609  0.22091402  0.89650838     0.09930
H1082       H  0.36137489  0.14291559  0.97552331     0.07460
H1083       H  0.37732645  0.25233957  0.00486315     0.07310
C1084       C  0.49329934  0.12959782  0.80178842     0.04350
C1085       C  0.48319916  0.12101821  0.76706626    -0.11800
C1086       C  0.44775666  0.11402665  0.75842220     0.01850
C1087       C  0.42157800  0.11478042  0.78520148    -0.10330
C1088       C  0.43118425  0.12290312  0.82095731     0.04340
C1089       C  0.46742786  0.13076864  0.82891380    -0.09750
H1090       H  0.50325240  0.12067523  0.74609168     0.09930
H1091       H  0.39400648  0.10945734  0.77809847     0.07460
H1092       H  0.47557853  0.13746807  0.85588327     0.07310
O1093       O  0.95154046  0.96473271  0.52921423    -0.87130
C1094       C  0.05574914  0.94226482  0.51710371     0.88900
Mg1095     Mg  0.91819889  0.97261127  0.48406709     1.58150
O1096       O  0.03743272  0.02760710  0.54876629    -0.86860
O1097       O  0.96885834  0.99184413  0.57846746    -0.74190
C1098       C  0.01402434  0.08018621  0.38216662     0.93950
O1099       O  0.99104848  0.92145741  0.46740378    -0.74000
O1100       O  0.98517550  0.06213381  0.38117770    -0.81510
Mg1101     Mg  0.98278479  0.91780190  0.52854382     1.57960
C1102       C  0.08197754  0.11659761  0.51310372     0.93880
O1103       O  0.97136480  0.91283234  0.58973298    -0.79770
H1104       H  0.01363562  0.05946072  0.58443238    -0.05110
C1105       C  0.05721803  0.01775598  0.44357800     0.88810
O1106       O  0.92319324  0.03349037  0.49276805    -0.74280
O1107       O  0.02901856  0.95016275  0.53499211    -0.87040
O1108       O  0.09011654  0.08712414  0.52813115    -0.79850
C1109       C  0.11955000  0.98471001  0.57811800     0.93990
C1110       C  0.98838351  0.92017463  0.61838546     0.93840
Mg1111     Mg  0.01803533  0.08168208  0.47219705     1.57950
O1112       O  0.02920648  0.08832679  0.41158933    -0.79780
O1113       O  0.00962818  0.07696209  0.53315267    -0.74020
O1114       O  0.09012146  0.96964342  0.58641120    -0.79860
O1115       O  0.93573699  0.88223977  0.51770911    -0.81570
O1116       O  0.91202741  0.02904050  0.41251088    -0.79890
C1117       C  0.02036446  0.05482432  0.55672435     0.88280
O1118       O  0.97236671  0.04908839  0.46445003    -0.87030
O1119       O  0.04987636  0.03504535  0.47086646    -0.87140
O1120       O  0.03321377  0.00706816  0.42185920    -0.74190
Mg1121     Mg  0.02976067  0.98205545  0.58152831     1.57970
O1122       O  0.12047693  0.01397519  0.56085166    -0.81570
H1123       H  0.91720987  0.98948853  0.56178360    -0.05290
O1124       O  0.96436578  0.97134222  0.45145897    -0.86840
H1125       H  0.98747067  0.93873929  0.41599557    -0.05120
H1126       H  0.94094452  0.08473413  0.48879272    -0.05290
C1127       C  0.98087748  0.94372219  0.44367505     0.88260
C1128       C  0.94458122  0.98200295  0.55661475     0.88840
C1129       C  0.94535860  0.05704397  0.48187701     0.88890
H1130       H  0.08474324  0.01068940  0.43858387    -0.05270
O1131       O  0.07798349  0.96582603  0.50632564    -0.74300
Mg1132     Mg  0.97251768  0.01651108  0.41808580     1.58000
H1133       H  0.05989441  0.91464580  0.50975710    -0.05290
C1134       C  0.91907918  0.88269379  0.48808135     0.93880
O1135       O  0.88174054  0.98468980  0.43816413    -0.81530
C1136       C  0.88258493  0.01397450  0.42090173     0.93940
O1137       O  0.01874492  0.93538975  0.61730430    -0.81510
Mg1138     Mg  0.08334910  0.02665820  0.51568490     1.58180
O1139       O  0.91151123  0.91194224  0.47232176    -0.79850
O1140       O  0.06456958  0.11754317  0.48392877    -0.81540
C1141       C  0.05369861  0.38469186  0.74165441     0.04350
C1142       C  0.01912200  0.37406929  0.73333009    -0.11800
C1143       C  0.01002957  0.36264712  0.69918335     0.01850
C1144       C  0.03595150  0.36273656  0.67208387    -0.10330
C1145       C  0.07146249  0.37392090  0.67971683     0.04340
C1146       C  0.08005112  0.38475254  0.71506141    -0.09750
H1147       H  0.99888430  0.37410762  0.75414178     0.09930
H1148       H  0.02839367  0.35420256  0.64547804     0.07460
H1149       H  0.10699064  0.39270415  0.72211852     0.07310
C1150       C  0.09951262  0.37401948  0.65119406     0.04350
C1151       C  0.12637204  0.40051412  0.65075055    -0.11800
C1152       C  0.15318068  0.40082729  0.62436163     0.01850
C1153       C  0.15267548  0.37410690  0.59788921    -0.10330
C1154       C  0.12616117  0.34730159  0.59763451     0.04340
C1155       C  0.09978356  0.34753333  0.62446344    -0.09750
H1156       H  0.12648906  0.42099106  0.67114252     0.09930
H1157       H  0.17305076  0.37411317  0.57738637     0.07460
H1158       H  0.07941584  0.32692672  0.62453678     0.07310
C1159       C  0.11683065  0.25687553  0.55147677     0.04350
C1160       C  0.11673907  0.28325323  0.57807914    -0.11800
C1161       C  0.12611263  0.31900829  0.56945457     0.01850
C1162       C  0.13528338  0.32748992  0.53362630    -0.10330
C1163       C  0.13492232  0.30075043  0.50734418     0.04340
C1164       C  0.12598442  0.26589542  0.51662953    -0.09750
H1165       H  0.10963401  0.27584987  0.60515714     0.09930
H1166       H  0.14219524  0.35460071  0.52606676     0.07460
H1167       H  0.12582350  0.24531961  0.49614508     0.07310
C1168       C  0.24385788  0.44714093  0.61529671     0.04350
C1169       C  0.21727860  0.42058151  0.61456270    -0.11800
C1170       C  0.18172004  0.42894967  0.62461786     0.01850
C1171       C  0.17369725  0.46448523  0.63502724    -0.10330
C1172       C  0.20068280  0.49058558  0.63556934     0.04340
C1173       C  0.23527743  0.48157536  0.62595245    -0.09750
H1174       H  0.22439981  0.39376039  0.60648985     0.09930
H1175       H  0.14677227  0.47199081  0.64232684     0.07460
H1176       H  0.25600041  0.50201287  0.62638663     0.07310
O1177       O  0.30062256  0.27734465  0.21550589    -0.87130
C1178       C  0.19600810  0.26842573  0.19230880     0.88900
Mg1179     Mg  0.33286721  0.23178442  0.22416163     1.58150
O1180       O  0.21467388  0.29866953  0.27826634    -0.86860
O1181       O  0.28491703  0.32640966  0.24369424    -0.74190
C1182       C  0.23445979  0.13119946  0.33080397     0.93950
O1183       O  0.25897750  0.21609135  0.17300203    -0.74000
O1184       O  0.26367028  0.13040932  0.31353175    -0.81510
Mg1185     Mg  0.26892728  0.27685273  0.16851625     1.57960
C1186       C  0.16798492  0.26337947  0.36636392     0.93880
O1187       O  0.28159113  0.33722888  0.16192758    -0.79770
H1188       H  0.23869616  0.33369860  0.31091800    -0.05110
C1189       C  0.19253537  0.19380757  0.26775484     0.88810
O1190       O  0.32743120  0.24084143  0.28497152    -0.74280
O1191       O  0.22325846  0.28551751  0.20062341    -0.87040
O1192       O  0.16042321  0.27865034  0.33680231    -0.79850
C1193       C  0.13441145  0.33151855  0.23399600     0.93990
C1194       C  0.26711857  0.36689678  0.17008077     0.93840
Mg1195     Mg  0.23170687  0.22142398  0.33226063     1.57950
O1196       O  0.21917961  0.16062059  0.33854730    -0.79780
O1197       O  0.24144305  0.28222532  0.32803820    -0.74020
O1198       O  0.16453525  0.33946026  0.22021376    -0.79860
O1199       O  0.31523713  0.26420092  0.13299643    -0.81570
O1200       O  0.33728868  0.15976083  0.28055995    -0.79890
C1201       C  0.23147270  0.30613032  0.30590812     0.88280
O1202       O  0.27770949  0.21314280  0.30024028    -0.87030
O1203       O  0.20012850  0.22100570  0.28517850    -0.87140
O1204       O  0.21627135  0.17166552  0.25769876    -0.74190
Mg1205     Mg  0.22446869  0.33179971  0.23342149     1.57970
O1206       O  0.13196465  0.31287392  0.26238966    -0.81570
H1207       H  0.33603339  0.30868987  0.24071145    -0.05290
O1208       O  0.28607606  0.19969791  0.22260432    -0.86840
H1209       H  0.26158052  0.16466892  0.19030525    -0.05120
H1210       H  0.30933075  0.23741217  0.33604888    -0.05290
C1211       C  0.26899059  0.19221689  0.19514664     0.88260
C1212       C  0.30846517  0.30432267  0.23315550     0.88840
C1213       C  0.30495603  0.23034460  0.30835931     0.88890
H1214       H  0.16502964  0.18917875  0.26012848    -0.05270
O1215       O  0.17350712  0.25770498  0.21554563    -0.74300
Mg1216     Mg  0.27693205  0.16675111  0.26778274     1.58000
H1217       H  0.19172712  0.26153276  0.16456028    -0.05290
C1218       C  0.33229925  0.23491616  0.13408380     0.93880
O1219       O  0.36874671  0.18583881  0.23722825    -0.81530
C1220       C  0.36703693  0.16772495  0.26594711     0.93940
O1221       O  0.23853522  0.36848578  0.18828743    -0.81510
Mg1222     Mg  0.16779063  0.26667568  0.27621685     1.58180
O1223       O  0.33988908  0.21963550  0.16361429    -0.79850
O1224       O  0.18512442  0.23411502  0.36758123    -0.81540
C1225       C  0.84829002  0.40016601  0.12884064     0.04350
C1226       C  0.84806309  0.37395041  0.10186327    -0.11800
C1227       C  0.87499638  0.34780713  0.09956447     0.01850
C1228       C  0.90283910  0.34835075  0.12502716    -0.10330
C1229       C  0.90368757  0.37420753  0.15247492     0.04340
C1230       C  0.87617318  0.39974649  0.15416752    -0.09750
H1231       H  0.82672558  0.37391269  0.08235926     0.09930
H1232       H  0.92394096  0.32872289  0.12351824     0.07460
H1233       H  0.87666777  0.41949896  0.17528615     0.07310
C1234       C  0.85481689  0.30306487  0.01017620     0.04350
C1235       C  0.85960575  0.32939713  0.03633829    -0.11800
C1236       C  0.87335434  0.32017086  0.07052834     0.01850
C1237       C  0.88526255  0.28453785  0.07630871    -0.10330
C1238       C  0.88105049  0.25869637  0.04925292     0.04340
C1239       C  0.86359602  0.26789668  0.01775109    -0.09750
H1240       H  0.85301333  0.35681126  0.02986251     0.09930
H1241       H  0.89785348  0.27693486  0.10122866     0.07460
H1242       H  0.86013754  0.24781700  0.99703560     0.07310
C1243       C  0.99719275  0.37254349  0.19335722     0.04350
C1244       C  0.98947861  0.38108287  0.22865477    -0.11800
C1245       C  0.95443865  0.38327595  0.24075559     0.01850
C1246       C  0.92627697  0.38152823  0.21586575    -0.10330
C1247       C  0.93348535  0.37522301  0.17916329     0.04340
C1248       C  0.96929378  0.36943429  0.16838529    -0.09750
H1249       H  0.01124898  0.38284819  0.24782082     0.09930
H1250       H  0.89898228  0.38374543  0.22517412     0.07460
H1251       H  0.97550544  0.36264532  0.14095904     0.07310
C1252       C  0.80035825  0.48926702  0.14294725     0.04350
C1253       C  0.76602128  0.48031560  0.13187118    -0.11800
C1254       C  0.75765951  0.44622292  0.11985658     0.01850
C1255       C  0.78412294  0.41979396  0.11928768    -0.10330
C1256       C  0.81957637  0.42802818  0.13024933     0.04340
C1257       C  0.82744317  0.46338497  0.14177190    -0.09750
H1258       H  0.74538745  0.50067102  0.13180647     0.09930
H1259       H  0.77695167  0.39321431  0.11033971     0.07460
H1260       H  0.85431130  0.47094096  0.14949221     0.07310
C1261       C  0.84879102  0.90121281  0.87606244     0.04350
C1262       C  0.84843180  0.87453936  0.90271281    -0.11800
C1263       C  0.87372044  0.84679361  0.90288098     0.01850
C1264       C  0.89984917  0.84616773  0.87583525    -0.10330
C1265       C  0.90115782  0.87265603  0.84901499     0.04340
C1266       C  0.87540137  0.90001638  0.84948032    -0.09750
H1267       H  0.82824463  0.87525641  0.92337200     0.09930
H1268       H  0.91931173  0.82488143  0.87568969     0.07460
H1269       H  0.87601008  0.92049632  0.82905830     0.07310
C1270       C  0.99038286  0.85711493  0.80239601     0.04350
C1271       C  0.98251879  0.86832384  0.76792737    -0.11800
C1272       C  0.94941834  0.88260284  0.75931831     0.01850
C1273       C  0.92248797  0.88387518  0.78540733    -0.10330
C1274       C  0.92947839  0.87163316  0.82072926     0.04340
C1275       C  0.96415072  0.85877699  0.82900621    -0.09750
H1276       H  0.00322138  0.86729402  0.74760579     0.09930
H1277       H  0.89659884  0.89442645  0.77812795     0.07460
H1278       H  0.97101724  0.85057545  0.85590709     0.07310
C1279       C  0.75997613  0.94984429  0.88661001     0.04350
C1280       C  0.76937449  0.98401105  0.87545804    -0.11800
C1281       C  0.80400114  0.99217767  0.86492213     0.01850
C1282       C  0.83015266  0.96539297  0.86496530    -0.10330
C1283       C  0.82121657  0.93008781  0.87584543     0.04340
C1284       C  0.78562293  0.92263505  0.88667639    -0.09750
H1285       H  0.74929065  0.00491672  0.87538924     0.09930
H1286       H  0.85713902  0.97221416  0.85702577     0.07460
H1287       H  0.77775798  0.89602828  0.89503318     0.07310
C1288       C  0.87983581  0.75573318  0.94865846     0.04350
C1289       C  0.86958516  0.76440348  0.98322601    -0.11800
C1290       C  0.86139243  0.79932520  0.99267547     0.01850
C1291       C  0.86299492  0.82649769  0.96674721    -0.10330
C1292       C  0.87256985  0.81824592  0.93098071     0.04340
C1293       C  0.88127195  0.78241254  0.92233135    -0.09750
H1294       H  0.86905902  0.74362799  0.00355604     0.09930
H1295       H  0.85709896  0.85371362  0.97451396     0.07460
H1296       H  0.88900370  0.77512137  0.89544098     0.07310
O1297       O  0.20241961  0.71860376  0.71465824    -0.87130
C1298       C  0.30715843  0.73157972  0.69351682     0.88900
Mg1299     Mg  0.16809685  0.76258353  0.72277173     1.58150
O1300       O  0.28729231  0.70044742  0.77893432    -0.86860
O1301       O  0.21950053  0.66967237  0.74245675    -0.74190
C1302       C  0.26102613  0.86678139  0.82922316     0.93950
O1303       O  0.24218428  0.78181666  0.67289814    -0.74000
O1304       O  0.23063338  0.86534005  0.81416811    -0.81510
Mg1305     Mg  0.23474426  0.72075954  0.66825982     1.57960
C1306       C  0.33056329  0.73768577  0.86807706     0.93880
O1307       O  0.22423912  0.66007036  0.66192102    -0.79770
H1308       H  0.26401877  0.66455859  0.81126229    -0.05110
C1309       C  0.30580864  0.80585942  0.76803244     0.88810
O1310       O  0.17298555  0.75327175  0.78362098    -0.74280
O1311       O  0.28017097  0.71383724  0.70127666    -0.87040
O1312       O  0.33863311  0.72193749  0.83901032    -0.79850
C1313       C  0.37027655  0.67178115  0.73739330     0.93990
C1314       C  0.23981723  0.63094039  0.67003745     0.93840
Mg1315     Mg  0.26733455  0.77715247  0.83208121     1.57950
O1316       O  0.27815171  0.83834402  0.83672192    -0.79780
O1317       O  0.25973620  0.71586664  0.82850222    -0.74020
O1318       O  0.34128342  0.66311075  0.72161171    -0.79860
O1319       O  0.18855188  0.73169696  0.63186414    -0.81570
O1320       O  0.15971452  0.83297387  0.77969017    -0.79890
C1321       C  0.27042749  0.69234665  0.80634869     0.88280
O1322       O  0.22142981  0.78282670  0.79939979    -0.87030
O1323       O  0.29904035  0.77836771  0.78540623    -0.87140
O1324       O  0.28136384  0.82732664  0.75801652    -0.74190
Mg1325     Mg  0.28039797  0.66722847  0.73354866     1.57970
O1326       O  0.37010824  0.68837050  0.76701859    -0.81570
H1327       H  0.16777556  0.68544681  0.73860572    -0.05290
O1328       O  0.21344668  0.79668647  0.72194500    -0.86840
H1329       H  0.23697183  0.83295877  0.69025998    -0.05120
H1330       H  0.19059069  0.75711886  0.83488353    -0.05290
C1331       C  0.23069122  0.80508672  0.69486933     0.88260
C1332       C  0.19529659  0.69103914  0.73176298     0.88840
C1333       C  0.19486764  0.76448984  0.80725216     0.88890
H1334       H  0.33317477  0.81146332  0.76062968    -0.05270
O1335       O  0.32904296  0.74256753  0.71725538    -0.74300
Mg1336     Mg  0.22031719  0.82941884  0.76750925     1.58000
H1337       H  0.31184361  0.73860225  0.66586094    -0.05290
C1338       C  0.17018312  0.76017365  0.63285957     0.93880
O1339       O  0.13021427  0.80696841  0.73509843    -0.81530
C1340       C  0.13055892  0.82398640  0.76447155     0.93940
O1341       O  0.26898609  0.63054716  0.68750685    -0.81510
Mg1342     Mg  0.33305340  0.73378268  0.77824904     1.58180
O1343       O  0.16150228  0.77478323  0.66233832    -0.79850
O1344       O  0.31408886  0.76731071  0.86806679    -0.81540
C1345       C  0.05438657  0.87010616  0.81224940     0.24810
C1346       C  0.02705204  0.84447354  0.80821051    -0.23290
C1347       C  0.03554330  0.81050176  0.79502053     0.19720
C1348       C  0.06972015  0.80367591  0.78194877     0.24760
C1349       C  0.09612962  0.83060992  0.78238169    -0.23240
C1350       C  0.08892256  0.86309566  0.79966130     0.19660
F1351       F  0.11422211  0.88914805  0.80135363    -0.13200
F1352       F  0.04650207  0.90334799  0.82436619    -0.15560
F1353       F  0.07654135  0.77117525  0.76734242    -0.15560
F1354       F  0.00948410  0.78551184  0.79060003    -0.13200
C1355       C  0.04095051  0.32449436  0.19695409     0.24810
C1356       C  0.03389958  0.36000578  0.18713519    -0.23290
C1357       C  0.06207897  0.38506254  0.18734858     0.19720
C1358       C  0.09577093  0.37557792  0.20084002     0.24760
C1359       C  0.10114720  0.34125559  0.21514259    -0.23240
C1360       C  0.07405687  0.31533155  0.21139388     0.19660
F1361       F  0.07908204  0.28138890  0.22331030    -0.13200
F1362       F  0.01409242  0.29994621  0.19747833    -0.15560
F1363       F  0.12193761  0.40072481  0.20294073    -0.15560
F1364       F  0.05574169  0.41962776  0.17832943    -0.13200
C1365       C  0.20724328  0.53626090  0.68196623     0.24810
C1366       C  0.19560534  0.52767234  0.64737285    -0.23290
C1367       C  0.19373655  0.55480648  0.62133014     0.19720
C1368       C  0.20657816  0.58925966  0.62889732     0.24760
C1369       C  0.22217026  0.59649926  0.66229352    -0.23240
C1370       C  0.22073720  0.57028021  0.68929840     0.19660
F1371       F  0.23378798  0.57718076  0.72250527    -0.13200
F1372       F  0.20968698  0.51037891  0.70736300    -0.15560
F1373       F  0.20668548  0.61445244  0.60273928    -0.15560
F1374       F  0.18324958  0.54680623  0.58750154    -0.13200
C1375       C  0.12607518  0.29449429  0.40863817     0.24810
C1376       C  0.16018404  0.28137691  0.40051452    -0.23290
C1377       C  0.18767237  0.28449758  0.42606906     0.19720
C1378       C  0.18037971  0.29718667  0.46034113     0.24760
C1379       C  0.14538565  0.30636622  0.46983770    -0.23240
C1380       C  0.11859753  0.30655748  0.44334162     0.19660
F1381       F  0.08440304  0.31459011  0.45223088    -0.13200
F1382       F  0.09933763  0.29248393  0.38416187    -0.15560
F1383       F  0.20650164  0.29624433  0.48557697    -0.15560
F1384       F  0.22135326  0.27353318  0.41834554    -0.13200
C1385       C  0.94640894  0.88644576  0.65964707     0.24810
C1386       C  0.97199716  0.91361346  0.65393198    -0.23290
C1387       C  0.98172979  0.93574866  0.68287874     0.19720
C1388       C  0.96894042  0.92877952  0.71713131     0.24760
C1389       C  0.94685854  0.89905934  0.72357766    -0.23240
C1390       C  0.93430401  0.87889697  0.69443849     0.19660
F1391       F  0.91299573  0.84999856  0.70011471    -0.13200
F1392       F  0.93509747  0.86563294  0.63214087    -0.15560
F1393       F  0.98172421  0.94842717  0.74492529    -0.15560
F1394       F  0.00478694  0.96355105  0.67843422    -0.13200
C1395       C  0.13048130  0.19257954  0.55978977     0.24810
C1396       C  0.10479069  0.21982080  0.55697206    -0.23290
C1397       C  0.07031009  0.21124899  0.54498147     0.19720
C1398       C  0.06287071  0.17717453  0.53183989     0.24760
C1399       C  0.08961831  0.15081978  0.53117861    -0.23240
C1400       C  0.12276311  0.15800558  0.54735670     0.19660
F1401       F  0.14860355  0.13265991  0.54815060    -0.13200
F1402       F  0.16413342  0.20050285  0.57090230    -0.15560
F1403       F  0.02987560  0.17042020  0.51817095    -0.15560
F1404       F  0.04524865  0.23722616  0.54165070    -0.13200
C1405       C  0.32144966  0.20350498  0.03905098     0.24810
C1406       C  0.35600624  0.19175985  0.03086374    -0.23290
C1407       C  0.38156170  0.18921654  0.05838806     0.19720
C1408       C  0.37356527  0.20142697  0.09292696     0.24760
C1409       C  0.34024855  0.21709166  0.09984713    -0.23240
C1410       C  0.31370595  0.21635738  0.07313397     0.19660
F1411       F  0.28060660  0.22965857  0.07958181    -0.13200
F1412       F  0.29653979  0.20668963  0.01279224    -0.15560
F1413       F  0.39929214  0.20093191  0.11853040    -0.15560
F1414       F  0.41533733  0.17855722  0.05080032    -0.13200
C1415       C  0.30337855  0.90826920  0.86210344     0.24810
C1416       C  0.27744923  0.90241769  0.83534579    -0.23290
C1417       C  0.26765250  0.93121555  0.81307235     0.19720
C1418       C  0.28067679  0.96550283  0.81961368     0.24760
C1419       C  0.30302032  0.97209370  0.84905426    -0.23240
C1420       C  0.31572122  0.94307738  0.86922027     0.19660
F1421       F  0.33735066  0.94890571  0.89779935    -0.13200
F1422       F  0.31483340  0.88087811  0.88295314    -0.15560
F1423       F  0.26787366  0.99319880  0.79989861    -0.15560
F1424       F  0.24435667  0.92658802  0.78555654    -0.13200
C1425       C  0.18007663  0.79267619  0.53802673     0.24810
C1426       C  0.14529481  0.80395629  0.53006847    -0.23290
C1427       C  0.11987639  0.80588285  0.55768691     0.19720
C1428       C  0.12823194  0.79336428  0.59205533     0.24760
C1429       C  0.16177691  0.77799713  0.59869035    -0.23240
C1430       C  0.18818120  0.77946658  0.57193165     0.19660
F1431       F  0.22152360  0.76661544  0.57815061    -0.13200
F1432       F  0.20487486  0.79018163  0.51165778    -0.15560
F1433       F  0.10266984  0.79332854  0.61776720    -0.15560
F1434       F  0.08593512  0.81625748  0.55032210    -0.13200
C1435       C  0.20495410  0.03514710  0.32167344     0.24810
C1436       C  0.19252716  0.02739820  0.35618593    -0.23290
C1437       C  0.18892538  0.05540933  0.38101220     0.19720
C1438       C  0.20065078  0.09008132  0.37238401     0.24760
C1439       C  0.21696320  0.09669874  0.33919627    -0.23240
C1440       C  0.21736345  0.06936116  0.31333393     0.19660
F1441       F  0.23134427  0.07535170  0.28034509    -0.13200
F1442       F  0.20922010  0.00845184  0.29747106    -0.15560
F1443       F  0.19900225  0.11621688  0.39746083    -0.15560
F1444       F  0.17750854  0.04832580  0.41473006    -0.13200
C1445       C  0.93154186  0.78775248  0.45717632     0.24810
C1446       C  0.89742657  0.77909520  0.44420880    -0.23290
C1447       C  0.87171656  0.80625678  0.44083706     0.19720
C1448       C  0.87904681  0.84086893  0.45341743     0.24760
C1449       C  0.91180191  0.84820624  0.47032189    -0.23240
C1450       C  0.93858064  0.82187589  0.47044767     0.19660
F1451       F  0.97123337  0.82875559  0.48485576    -0.13200
F1452       F  0.95659970  0.76185347  0.46109325    -0.15560
F1453       F  0.85317136  0.86615050  0.45194301    -0.15560
F1454       F  0.83835690  0.79823982  0.42893171    -0.13200
C1455       C  0.07026250  0.69028420  0.27916069     0.24810
C1456       C  0.09673740  0.66365963  0.28002631    -0.23290
C1457       C  0.08955002  0.63120295  0.29759311     0.19720
C1458       C  0.05494302  0.62386630  0.31000950     0.24760
C1459       C  0.02764358  0.64926782  0.30573183    -0.23240
C1460       C  0.03611369  0.68323112  0.29224069     0.19660
F1461       F  0.01004155  0.70797018  0.28752313    -0.13200
F1462       F  0.07701183  0.72273195  0.26419188    -0.15560
F1463       F  0.04707905  0.59067775  0.32253867    -0.15560
F1464       F  0.11499375  0.60553711  0.29985525    -0.13200
C1465       C  0.43067162  0.80725745  0.22456294     0.24810
C1466       C  0.40358663  0.83303686  0.22068148    -0.23290
C1467       C  0.41029657  0.86351521  0.19965078     0.19720
C1468       C  0.44489804  0.87029117  0.18685671     0.24760
C1469       C  0.47277829  0.84631136  0.19434663    -0.23240
C1470       C  0.46483609  0.81371020  0.21116968     0.19660
F1471       F  0.49139631  0.79024105  0.21881244    -0.13200
F1472       F  0.42451913  0.77634675  0.24270570    -0.15560
F1473       F  0.45212590  0.90206383  0.17078290    -0.15560
F1474       F  0.38430877  0.88813022  0.19414878    -0.13200
C1475       C  0.18394135  0.70736731  0.03706886     0.24810
C1476       C  0.15043210  0.69259250  0.02882349    -0.23290
C1477       C  0.12516586  0.68801992  0.05630903     0.19720
C1478       C  0.13209715  0.70125862  0.09074103     0.24760
C1479       C  0.16400519  0.71997203  0.09764358    -0.23240
C1480       C  0.19055445  0.72128771  0.07101833     0.19660
F1481       F  0.22253758  0.73737197  0.07743037    -0.13200
F1482       F  0.20854556  0.71249861  0.01086252    -0.15560
F1483       F  0.10650570  0.69852098  0.11629387    -0.15560
F1484       F  0.09236360  0.67435707  0.04873488    -0.13200
C1485       C  0.70130859  0.03832160  0.18187682     0.24810
C1486       C  0.69257576  0.02892889  0.14666069    -0.23290
C1487       C  0.69293462  0.05547489  0.11990394     0.19720
C1488       C  0.70534874  0.09003514  0.12761797     0.24760
C1489       C  0.71812904  0.09801122  0.16197703    -0.23240
C1490       C  0.71428298  0.07251411  0.18944059     0.19660
F1491       F  0.72478223  0.08021363  0.22336485    -0.13200
F1492       F  0.70160156  0.01305145  0.20799728    -0.15560
F1493       F  0.70807472  0.11448648  0.10089763    -0.15560
F1494       F  0.68533310  0.04666633  0.08551234    -0.13200
C1495       C  0.77934876  0.42891364  0.30971151     0.24810
C1496       C  0.78137237  0.40207979  0.33609585    -0.23290
C1497       C  0.80023851  0.40909355  0.36784099     0.19720
C1498       C  0.81282282  0.44377203  0.37488905     0.24760
C1499       C  0.80734869  0.47139941  0.34992603    -0.23240
C1500       C  0.79253012  0.46316114  0.31647475     0.19660
F1501       F  0.78664923  0.48949394  0.29213306    -0.13200
F1502       F  0.76313472  0.42241753  0.27783578    -0.15560
F1503       F  0.82664868  0.45135899  0.40759666    -0.15560
F1504       F  0.80363643  0.38338010  0.39324646    -0.13200
C1505       C  0.21369596  0.45825154  0.82047345     0.24810
C1506       C  0.19427701  0.46997267  0.85028458    -0.23290
C1507       C  0.18039226  0.44458134  0.87434188     0.19720
C1508       C  0.18831235  0.40814753  0.87009589     0.24760
C1509       C  0.21094783  0.39699553  0.84224387    -0.23240
C1510       C  0.22226966  0.42226302  0.81665890     0.19660
F1511       F  0.24243007  0.41229388  0.78821108    -0.13200
F1512       F  0.22739821  0.48233710  0.79690691    -0.15560
F1513       F  0.17597504  0.38425235  0.89452429    -0.15560
F1514       F  0.16195993  0.45540648  0.90360078    -0.13200
C1515       C  0.19949387  0.90968959  0.13637051     0.24810
C1516       C  0.22117921  0.90312758  0.16640452    -0.23290
C1517       C  0.22599657  0.93054079  0.19179814     0.19720
C1518       C  0.21264078  0.96470626  0.18545610     0.24760
C1519       C  0.19485834  0.97239906  0.15333602    -0.23240
C1520       C  0.18674645  0.94431504  0.12967259     0.19660
F1521       F  0.16990749  0.95129623  0.09827663    -0.13200
F1522       F  0.19315440  0.88346912  0.11209889    -0.15560
F1523       F  0.22106891  0.99147997  0.20853315    -0.15560
F1524       F  0.24490927  0.92468722  0.22226801    -0.13200
C1525       C  0.11785563  0.18682238  0.94474258     0.24810
C1526       C  0.14565381  0.19185800  0.96963105    -0.23290
C1527       C  0.17932114  0.20311564  0.95751751     0.19720
C1528       C  0.18440029  0.21195996  0.92160859     0.24760
C1529       C  0.15599750  0.20921637  0.89706785    -0.23240
C1530       C  0.12314754  0.19500678  0.90849875     0.19660
F1531       F  0.09547770  0.19176717  0.88521379    -0.13200
F1532       F  0.08474493  0.17723246  0.95614177    -0.15560
F1533       F  0.21690295  0.22422152  0.91096223    -0.15560
F1534       F  0.20632230  0.20876107  0.98117866    -0.13200
C1535       C  0.04774451  0.06981785  0.28793027     0.24810
C1536       C  0.05718723  0.10504759  0.27912115    -0.23290
C1537       C  0.05734826  0.13130890  0.30606998     0.19720
C1538       C  0.04502727  0.12309308  0.34053472     0.24760
C1539       C  0.03167857  0.08876476  0.34798604    -0.23240
C1540       C  0.03478509  0.06178890  0.32198006     0.19660
F1541       F  0.02372634  0.02787703  0.32908789    -0.13200
F1542       F  0.04688244  0.04418539  0.26224225    -0.15560
F1543       F  0.04308747  0.14934160  0.36547487    -0.15560
F1544       F  0.06563460  0.16571939  0.29784439    -0.13200
C1545       C  0.90917323  0.12899705  0.20271964     0.24810
C1546       C  0.90213632  0.16212405  0.21885580    -0.23290
C1547       C  0.92867272  0.18891941  0.21819766     0.19720
C1548       C  0.96267690  0.18161597  0.20492674     0.24760
C1549       C  0.97104763  0.14721522  0.19275591    -0.23240
C1550       C  0.94366300  0.12141826  0.19014932     0.19660
F1551       F  0.95137149  0.08777610  0.17907514    -0.13200
F1552       F  0.88373677  0.10303494  0.20204380    -0.15560
F1553       F  0.98877182  0.20676186  0.20819970    -0.15560
F1554       F  0.92213437  0.22187061  0.23189846    -0.13200
C1555       C  0.81851257  0.20638453  0.46345223     0.24810
C1556       C  0.85237274  0.19258817  0.47146863    -0.23290
C1557       C  0.87736860  0.18830537  0.44373548     0.19720
C1558       C  0.86977457  0.20090974  0.40919109     0.24760
C1559       C  0.83746824  0.21871810  0.40243156    -0.23240
C1560       C  0.81122542  0.21967239  0.42937282     0.19660
F1561       F  0.77891371  0.23491216  0.42314397    -0.13200
F1562       F  0.79414690  0.21119888  0.48989228    -0.15560
F1563       F  0.89509701  0.19854679  0.38336495    -0.15560
F1564       F  0.91046424  0.17550277  0.45109174    -0.13200
C1565       C  0.03931600  0.17864405  0.71571202     0.24810
C1566       C  0.02806303  0.15018202  0.69393309    -0.23290
C1567       C  0.05389050  0.12858430  0.67746452     0.19720
C1568       C  0.09036084  0.13363712  0.68507070     0.24760
C1569       C  0.10122656  0.15982506  0.70991972    -0.23240
C1570       C  0.07536697  0.18322916  0.72391510     0.19660
F1571       F  0.08480075  0.21022386  0.74634057    -0.13200
F1572       F  0.01484825  0.19989821  0.73192479    -0.15560
F1573       F  0.11467866  0.11144526  0.67004288    -0.15560
F1574       F  0.04360270  0.10071340  0.65659432    -0.13200
C1575       C  0.86753105  0.69094561  0.94112176     0.24810
C1576       C  0.89259994  0.71899057  0.94346463    -0.23290
C1577       C  0.92747345  0.71153455  0.95489729     0.19720
C1578       C  0.93603155  0.67761861  0.96771543     0.24760
C1579       C  0.91001281  0.65033638  0.96864648    -0.23240
C1580       C  0.87636098  0.65656280  0.95322340     0.19660
F1581       F  0.85114748  0.63038019  0.95280597    -0.13200
F1582       F  0.83350029  0.69781405  0.93064613    -0.15560
F1583       F  0.96943254  0.67187133  0.98073401    -0.15560
F1584       F  0.95193009  0.73831733  0.95786661    -0.13200
C1585       C  0.93876194  0.62763792  0.19254783     0.24810
C1586       C  0.94261046  0.60256940  0.22035657    -0.23290
C1587       C  0.95589931  0.56847356  0.21255534     0.19720
C1588       C  0.96909424  0.56094187  0.17857267     0.24760
C1589       C  0.96858107  0.58720089  0.15156887    -0.23240
C1590       C  0.95130073  0.61981707  0.15810516     0.19660
F1591       F  0.94945581  0.64518365  0.13218914    -0.13200
F1592       F  0.92651763  0.66097026  0.19975286    -0.15560
F1593       F  0.98385730  0.52838599  0.17250118    -0.15560
F1594       F  0.96028046  0.54405016  0.23910878    -0.13200
C1595       C  0.04953596  0.43155700  0.78721399     0.24810
C1596       C  0.05955685  0.39653091  0.77867461    -0.23290
C1597       C  0.06065085  0.37052159  0.80590718     0.19720
C1598       C  0.04841598  0.37859998  0.84037307     0.24760
C1599       C  0.03433937  0.41255037  0.84757248    -0.23240
C1600       C  0.03676368  0.43946437  0.82131350     0.19660
F1601       F  0.02508179  0.47310517  0.82818446    -0.13200
F1602       F  0.04785043  0.45694737  0.76126590    -0.15560
F1603       F  0.04714790  0.35244114  0.86553579    -0.15560
F1604       F  0.06956818  0.33630078  0.79794326    -0.13200
C1605       C  0.07129134  0.28639407  0.04251483     0.24810
C1606       C  0.10544530  0.27886143  0.05592732    -0.23290
C1607       C  0.13017700  0.30695300  0.06028469     0.19720
C1608       C  0.12187962  0.34153255  0.04829707     0.24760
C1609       C  0.08918866  0.34789935  0.03091991    -0.23240
C1610       C  0.06333524  0.32047403  0.02977495     0.19660
F1611       F  0.03073771  0.32626456  0.01486823    -0.13200
F1612       F  0.04718372  0.25957519  0.03763890    -0.15560
F1613       F  0.14682538  0.36785019  0.05085714    -0.15560
F1614       F  0.16350952  0.30006623  0.07280364    -0.13200
C1615       C  0.30644426  0.44412556  0.11793905     0.24810
C1616       C  0.30886776  0.47022615  0.14497524    -0.23290
C1617       C  0.30312413  0.46024726  0.18063395     0.19720
C1618       C  0.29110523  0.42581515  0.18871488     0.24760
C1619       C  0.28519548  0.40075770  0.16127376    -0.23240
C1620       C  0.29492104  0.40937172  0.12611435     0.19660
F1621       F  0.28988505  0.38539943  0.09934364    -0.13200
F1622       F  0.31112452  0.45354706  0.08318107    -0.15560
F1623       F  0.28327108  0.41750034  0.22320674    -0.15560
F1624       F  0.30480762  0.48510074  0.20703723    -0.13200
C1625       C  0.19407001  0.56252005  0.12689982     0.24810
C1626       C  0.22210748  0.55591320  0.10281321    -0.23290
C1627       C  0.21434347  0.54038445  0.06957819     0.19720
C1628       C  0.18008820  0.52767713  0.06224922     0.24760
C1629       C  0.15264038  0.53097798  0.08774699    -0.23240
C1630       C  0.15927831  0.55054261  0.11916625     0.19660
F1631       F  0.13296564  0.55536854  0.14360533    -0.13200
F1632       F  0.20112053  0.57728941  0.15929213    -0.15560
F1633       F  0.17416572  0.51068319  0.03069187    -0.15560
F1634       F  0.24107941  0.53341260  0.04607932    -0.13200
C1635       C  0.37586145  0.68845539  0.94440795     0.24810
C1636       C  0.35080102  0.69351098  0.97194090    -0.23290
C1637       C  0.31742156  0.70828524  0.96365408     0.19720
C1638       C  0.31077560  0.72173050  0.92950927     0.24760
C1639       C  0.33719023  0.71999446  0.90277975    -0.23240
C1640       C  0.36891312  0.70126427  0.90980901     0.19660
F1641       F  0.39435448  0.69813257  0.88418580    -0.13200
F1642       F  0.40852674  0.67474099  0.95203414    -0.15560
F1643       F  0.27893242  0.73781429  0.92300077    -0.15560
F1644       F  0.29300893  0.71382300  0.98990293    -0.13200
C1645       C  0.80644018  0.44824081  0.86403991     0.24810
C1646       C  0.78081987  0.44325999  0.89121947    -0.23290
C1647       C  0.79133311  0.44645475  0.92705369     0.19720
C1648       C  0.82570176  0.45848049  0.93546385     0.24760
C1649       C  0.85016745  0.46694856  0.90815393    -0.23240
C1650       C  0.84109825  0.45981160  0.87250342     0.19660
F1651       F  0.86447769  0.46740519  0.84580823    -0.13200
F1652       F  0.79653612  0.44605056  0.82917029    -0.15560
F1653       F  0.83449998  0.46384799  0.97030419    -0.15560
F1654       F  0.76700810  0.44225865  0.95366612    -0.13200
C1655       C  0.45955979  0.32106385  0.79055605     0.24810
C1656       C  0.47100789  0.35202515  0.80846030    -0.23290
C1657       C  0.44541974  0.37631246  0.82113154     0.19720
C1658       C  0.40901986  0.37101964  0.81341911     0.24760
C1659       C  0.39815717  0.34191068  0.79212524    -0.23240
C1660       C  0.42362883  0.31624593  0.78208991     0.19660
F1661       F  0.41388955  0.28675834  0.76321426    -0.13200
F1662       F  0.48384271  0.29723986  0.77807576    -0.15560
F1663       F  0.38486187  0.39558499  0.82449969    -0.15560
F1664       F  0.45597211  0.40661643  0.83813371    -0.13200
C1665       C  0.68265459  0.29594185  0.03789302     0.24810
C1666       C  0.64819366  0.30759513  0.02912677    -0.23290
C1667       C  0.62213423  0.30965452  0.05614787     0.19720
C1668       C  0.62954928  0.29697458  0.09068125     0.24760
C1669       C  0.66281237  0.28138135  0.09810607    -0.23240
C1670       C  0.68984985  0.28265389  0.07198493     0.19660
F1671       F  0.72290879  0.26948082  0.07899741    -0.13200
F1672       F  0.70799263  0.29316860  0.01209040    -0.15560
F1673       F  0.60333807  0.29693706  0.11572966    -0.15560
F1674       F  0.58841433  0.32014668  0.04796123    -0.13200
C1675       C  0.71582231  0.96268505  0.93293603     0.24810
C1676       C  0.72341238  0.94576325  0.90040849    -0.23290
C1677       C  0.69533367  0.93826087  0.87651551     0.19720
C1678       C  0.66067904  0.95060402  0.88363863     0.24760
C1679       C  0.65418133  0.97138489  0.91426029    -0.23240
C1680       C  0.68168490  0.97569939  0.93967157     0.19660
F1681       F  0.67593322  0.99381045  0.97058729    -0.13200
F1682       F  0.74263832  0.97055747  0.95619490    -0.15560
F1683       F  0.63434656  0.94476430  0.85932666    -0.15560
F1684       F  0.70225412  0.92221119  0.84475396    -0.13200
C1685       C  0.28463014  0.03581643  0.06623428     0.24810
C1686       C  0.27751342  0.05464516  0.09782694    -0.23290
C1687       C  0.30605504  0.06396044  0.12050500     0.19720
C1688       C  0.34070622  0.05159024  0.11337112     0.24760
C1689       C  0.34685645  0.02903686  0.08393517    -0.23240
C1690       C  0.31881145  0.02283795  0.05949217     0.19660
F1691       F  0.32407697  0.00295673  0.02959521    -0.13200
F1692       F  0.25739682  0.02610648  0.04418632    -0.15560
F1693       F  0.36745822  0.05926126  0.13670064    -0.15560
F1694       F  0.29965173  0.08183091  0.15138772    -0.13200
C1695       C  0.56897159  0.21443264  0.95653040     0.24810
C1696       C  0.60307975  0.22241213  0.94319605    -0.23290
C1697       C  0.62808170  0.19471258  0.93924464     0.19720
C1698       C  0.62018287  0.16019569  0.95175273     0.24760
C1699       C  0.58756475  0.15348001  0.96912467    -0.23240
C1700       C  0.56137176  0.18038600  0.96972455     0.19660
F1701       F  0.52880170  0.17415467  0.98453656    -0.13200
F1702       F  0.54461388  0.24088225  0.96100391    -0.15560
F1703       F  0.64546015  0.13435612  0.94974038    -0.15560
F1704       F  0.66140136  0.20206740  0.92688104    -0.13200
C1705       C  0.37699620  0.80581205  0.06252657     0.24810
C1706       C  0.40096924  0.77774156  0.05596108    -0.23290
C1707       C  0.43401872  0.78529957  0.03999258     0.19720
C1708       C  0.44122666  0.81941472  0.02681945     0.24760
C1709       C  0.41572321  0.84682060  0.03001979    -0.23240
C1710       C  0.38453667  0.84039198  0.04998359     0.19660
F1711       F  0.36007616  0.86665983  0.05466179    -0.13200
F1712       F  0.34472527  0.79886513  0.07759805    -0.15560
F1713       F  0.47263894  0.82521959  0.00954296    -0.15560
F1714       F  0.45736365  0.75846388  0.03305984    -0.13200
C1715       C  0.31616776  0.78730148  0.46534513     0.24810
C1716       C  0.34867365  0.80444170  0.47300687    -0.23290
C1717       C  0.37262130  0.81179590  0.44497664     0.19720
C1718       C  0.36568468  0.79896530  0.41039839     0.24760
C1719       C  0.33512782  0.77794239  0.40387865    -0.23240
C1720       C  0.30957122  0.77386557  0.43123007     0.19660
F1721       F  0.27866706  0.75559855  0.42535390    -0.13200
F1722       F  0.29282300  0.77962136  0.49209700    -0.15560
F1723       F  0.39015885  0.80452604  0.38420437    -0.15560
F1724       F  0.40439982  0.82796819  0.45197707    -0.13200
C1725       C  0.45600265  0.93282090  0.78747164     0.24810
C1726       C  0.44497847  0.89810246  0.77855309    -0.23290
C1727       C  0.44337648  0.87178149  0.80546313     0.19720
C1728       C  0.45603368  0.87922332  0.83997630     0.24760
C1729       C  0.47108862  0.91281105  0.84751423    -0.23240
C1730       C  0.46926010  0.94006236  0.82158111     0.19660
F1731       F  0.48182570  0.97340990  0.82881718    -0.13200
F1732       F  0.45814525  0.95849676  0.76183017    -0.15560
F1733       F  0.45660103  0.85279868  0.86488205    -0.15560
F1734       F  0.43344653  0.83784462  0.79713481    -0.13200
C1735       C  0.28244362  0.03978577  0.67868283     0.24810
C1736       C  0.30467044  0.02851570  0.65067191    -0.23290
C1737       C  0.32147810  0.05436618  0.62910013     0.19720
C1738       C  0.31385358  0.09085142  0.63378538     0.24760
C1739       C  0.28860888  0.10169385  0.65951020    -0.23240
C1740       C  0.27414153  0.07580280  0.68280150     0.19660
F1741       F  0.25136758  0.08519254  0.70941214    -0.13200
F1742       F  0.26611092  0.01532616  0.70010387    -0.15560
F1743       F  0.32944823  0.11522709  0.61181155    -0.15560
F1744       F  0.34290622  0.04411334  0.60174674    -0.13200
C1745       C  0.21454860  0.95354083  0.56777508     0.24810
C1746       C  0.22225752  0.94104925  0.60228177    -0.23290
C1747       C  0.19438709  0.93758837  0.62727578     0.19720
C1748       C  0.16006562  0.95004901  0.61903016     0.24760
C1749       C  0.15367188  0.96676162  0.58599897    -0.23240
C1750       C  0.18063502  0.96664064  0.55978056     0.19660
F1751       F  0.17461821  0.98076680  0.52684026    -0.13200
F1752       F  0.24113743  0.95740797  0.54335949    -0.15560
F1753       F  0.13416266  0.94880161  0.64437603    -0.15560
F1754       F  0.20148940  0.92601747  0.66095288    -0.13200
C1755       C  0.46029996  0.17831384  0.30217889     0.24810
C1756       C  0.47017210  0.14265869  0.30791790    -0.23290
C1757       C  0.44402249  0.11556955  0.30527068     0.19720
C1758       C  0.40935940  0.12370488  0.29365151     0.24760
C1759       C  0.40084400  0.15889280  0.28403098    -0.23240
C1760       C  0.42595386  0.18635944  0.29006921     0.19660
F1761       F  0.41777152  0.22086681  0.28230556    -0.13200
F1762       F  0.48518869  0.20478595  0.30400976    -0.15560
F1763       F  0.38538294  0.09688346  0.28843981    -0.15560
F1764       F  0.45333609  0.08081152  0.30982198    -0.13200
C1765       C  0.52690680  0.06140576  0.17904132     0.24810
C1766       C  0.52972527  0.08736100  0.15186930    -0.23290
C1767       C  0.54940656  0.11877174  0.15854822     0.19720
C1768       C  0.56198449  0.12601326  0.19320488     0.24760
C1769       C  0.55590216  0.10143734  0.22106593    -0.23240
C1770       C  0.54028015  0.06822710  0.21314410     0.19660
F1771       F  0.53380674  0.04425737  0.23971628    -0.13200
F1772       F  0.50987407  0.02983395  0.17300051    -0.15560
F1773       F  0.57680219  0.15840219  0.20039677    -0.15560
F1774       F  0.55384134  0.14363410  0.13244254    -0.13200
C1775       C  0.78713876  0.04397931  0.43148259     0.24810
C1776       C  0.77970635  0.05814641  0.39756479    -0.23290
C1777       C  0.80782898  0.06293571  0.37307100     0.19720
C1778       C  0.84215954  0.05025475  0.38107493     0.24760
C1779       C  0.84832567  0.03194875  0.41332365    -0.23240
C1780       C  0.82102872  0.03066880  0.43919963     0.19660
F1781       F  0.82670012  0.01504854  0.47152275    -0.13200
F1782       F  0.76032020  0.03877129  0.45540372    -0.15560
F1783       F  0.86834875  0.05302336  0.35614209    -0.15560
F1784       F  0.80104037  0.07622628  0.33997088    -0.13200
C1785       C  0.18079477  0.02681176  0.94445968     0.24810
C1786       C  0.15425383  0.02921797  0.91781192    -0.23290
C1787       C  0.16147981  0.04893407  0.88662504     0.19720
C1788       C  0.19611039  0.06194596  0.88026671     0.24760
C1789       C  0.22353861  0.05592421  0.90530389    -0.23240
C1790       C  0.21502748  0.04034293  0.93834764     0.19660
F1791       F  0.24114177  0.03400755  0.96278467    -0.13200
F1792       F  0.17405533  0.00990547  0.97592977    -0.15560
F1793       F  0.20394107  0.07653824  0.84794498    -0.15560
F1794       F  0.13605642  0.05277414  0.86100960    -0.13200
C1795       C  0.04625156  0.87608002  0.15976349     0.24810
C1796       C  0.03069310  0.90964488  0.15352372    -0.23290
C1797       C  0.03223979  0.93581918  0.18050183     0.19720
C1798       C  0.04582153  0.92748907  0.21420806     0.24760
C1799       C  0.05737794  0.89268312  0.22178116    -0.23240
C1800       C  0.05911166  0.86748015  0.19394642     0.19660
F1801       F  0.06969472  0.83350321  0.20092864    -0.13200
F1802       F  0.04617172  0.85073097  0.13382518    -0.15560
F1803       F  0.04347919  0.95207753  0.24079776    -0.15560
F1804       F  0.01922803  0.96918183  0.17466544    -0.13200
C1805       C  0.89289291  0.15894365  0.05542990     0.24810
C1806       C  0.91434648  0.15344030  0.02484375    -0.23290
C1807       C  0.93047413  0.18350142  0.00856309     0.19720
C1808       C  0.92348585  0.21782686  0.02082032     0.24760
C1809       C  0.89904432  0.22354550  0.04869125    -0.23240
C1810       C  0.88483389  0.19386592  0.06689325     0.19660
F1811       F  0.86133229  0.19870674  0.09404413    -0.13200
F1812       F  0.87834358  0.13077787  0.07318897    -0.15560
F1813       F  0.93752343  0.24606752  0.00263078    -0.15560
F1814       F  0.95230142  0.18013890  0.97977483    -0.13200
C1815       C  0.82081685  0.97427136  0.06251408     0.24810
C1816       C  0.84826624  0.97036435  0.08800924    -0.23290
C1817       C  0.84168301  0.94979259  0.11885016     0.19720
C1818       C  0.80697069  0.93735525  0.12611046     0.24760
C1819       C  0.77892412  0.94450772  0.10211792    -0.23240
C1820       C  0.78663636  0.96110104  0.06935527     0.19660
F1821       F  0.75988472  0.96857386  0.04594174    -0.13200
F1822       F  0.82668026  0.99211941  0.03139016    -0.15560
F1823       F  0.79997882  0.92157646  0.15806302    -0.15560
F1824       F  0.86800024  0.94425871  0.14321506    -0.13200
C1825       C  0.97675838  0.05717102  0.81861652     0.24810
C1826       C  0.97160676  0.08187109  0.84652606    -0.23290
C1827       C  0.94967131  0.11174255  0.84043749     0.19720
C1828       C  0.93696271  0.11902778  0.80586645     0.24760
C1829       C  0.94531893  0.09607271  0.77736738    -0.23240
C1830       C  0.96340112  0.06405779  0.78450060     0.19660
F1831       F  0.97202251  0.04164617  0.75731050    -0.13200
F1832       F  0.99595899  0.02687625  0.82396492    -0.15560
F1833       F  0.91978934  0.15028576  0.79944539    -0.15560
F1834       F  0.94300653  0.13532583  0.86713856    -0.13200
C1835       C  0.06095942  0.81820143  0.97118508     0.24810
C1836       C  0.08712176  0.84538270  0.97083422    -0.23290
C1837       C  0.11968316  0.83918161  0.95326337     0.19720
C1838       C  0.12753644  0.80493740  0.94024934     0.24760
C1839       C  0.10258786  0.77693616  0.94392758    -0.23240
C1840       C  0.06854023  0.78440880  0.95753419     0.19660
F1841       F  0.04422410  0.75767085  0.96177989    -0.13200
F1842       F  0.02840424  0.82390894  0.98611293    -0.15560
F1843       F  0.16082438  0.79806737  0.92769740    -0.15560
F1844       F  0.14496326  0.86524439  0.95147334    -0.13200
C1845       C  0.54081437  0.37295093  0.66009686     0.24810
C1846       C  0.53226507  0.40848543  0.65191508    -0.23290
C1847       C  0.54025013  0.43559124  0.67676971     0.19720
C1848       C  0.55314310  0.42693115  0.71072670     0.24760
C1849       C  0.55761820  0.39103100  0.72046560    -0.23240
C1850       C  0.55318482  0.36421181  0.69437399     0.19660
F1851       F  0.55674484  0.32925862  0.70350978    -0.13200
F1852       F  0.53395599  0.34648292  0.63622645    -0.15560
F1853       F  0.55694493  0.45319273  0.73550509    -0.15560
F1854       F  0.53381926  0.47040675  0.66871895    -0.13200
C1855       C  0.68130300  0.52255099  0.44022847     0.24810
C1856       C  0.65355552  0.52814899  0.41538415    -0.23290
C1857       C  0.65994059  0.55023733  0.38556844     0.19720
C1858       C  0.69467052  0.56261512  0.37844809     0.24760
C1859       C  0.72294750  0.55377884  0.40155829    -0.23240
C1860       C  0.71554343  0.53558648  0.43352467     0.19660
F1861       F  0.74255455  0.52653593  0.45605684    -0.13200
F1862       F  0.67566656  0.50318600  0.47047836    -0.15560
F1863       F  0.70140197  0.57998193  0.34726896    -0.15560
F1864       F  0.63336507  0.55735984  0.36191183    -0.13200
C1865       C  0.44136032  0.68082622  0.52673824     0.24810
C1866       C  0.41619466  0.65304873  0.53115219    -0.23290
C1867       C  0.38567054  0.65929549  0.55210808     0.19720
C1868       C  0.37837466  0.69391231  0.56454811     0.24760
C1869       C  0.40194935  0.72229469  0.55692458    -0.23240
C1870       C  0.43443419  0.71497801  0.53982308     0.19660
F1871       F  0.45738108  0.74204328  0.53174775    -0.13200
F1872       F  0.47217465  0.67532756  0.50841800    -0.15560
F1873       F  0.34660352  0.70053008  0.58065322    -0.15560
F1874       F  0.36153234  0.63275060  0.55795401    -0.13200
C1875       C  0.55883263  0.31838284  0.46980969     0.24810
C1876       C  0.58507627  0.34545887  0.46875721    -0.23290
C1877       C  0.61750725  0.33885902  0.45111966     0.19720
C1878       C  0.62521251  0.30433468  0.43880623     0.24760
C1879       C  0.60023947  0.27647768  0.44330282    -0.23240
C1880       C  0.56627718  0.28428836  0.45689694     0.19660
F1881       F  0.54194470  0.25769142  0.46186186    -0.13200
F1882       F  0.52640443  0.32448259  0.48485844    -0.15560
F1883       F  0.65840291  0.29712652  0.42618945    -0.15560
F1884       F  0.64284646  0.36481553  0.44871170    -0.13200
C1885       C  0.28898790  0.45647456  0.56899000     0.24810
C1886       C  0.28071221  0.44222938  0.60268934    -0.23290
C1887       C  0.30818727  0.43795132  0.62804894     0.19720
C1888       C  0.34268616  0.45101619  0.62098020     0.24760
C1889       C  0.34961438  0.46931342  0.58886949    -0.23240
C1890       C  0.32297873  0.47026570  0.56225675     0.19660
F1891       F  0.32941734  0.48593429  0.53009456    -0.13200
F1892       F  0.26279074  0.46129676  0.54428590    -0.15560
F1893       F  0.36828164  0.44855602  0.64659942    -0.15560
F1894       F  0.30058269  0.42471133  0.66099628    -0.13200
C1895       C  0.48017375  0.56241547  0.31914372     0.24810
C1896       C  0.47241632  0.58564207  0.34773139    -0.23290
C1897       C  0.44861926  0.61414571  0.34186564     0.19720
C1898       C  0.43659758  0.62182500  0.30709017     0.24760
C1899       C  0.44742428  0.60048632  0.27819823    -0.23240
C1900       C  0.46745047  0.56957361  0.28490056     0.19660
F1901       F  0.47844208  0.54873022  0.25731605    -0.13200
F1902       F  0.50130737  0.53334346  0.32394057    -0.15560
F1903       F  0.41722709  0.65184858  0.30111120    -0.15560
F1904       F  0.43919980  0.63606529  0.36913111    -0.13200
C1905       C  0.56188220  0.67811134  0.02805155     0.24810
C1906       C  0.58827686  0.65142614  0.02978533    -0.23290
C1907       C  0.62020224  0.65854441  0.04833596     0.19720
C1908       C  0.62729413  0.69317322  0.06102645     0.24760
C1909       C  0.60214338  0.72061458  0.05611026    -0.23240
C1910       C  0.56865740  0.71225742  0.04140274     0.19660
F1911       F  0.54415646  0.73842510  0.03598522    -0.13200
F1912       F  0.52988988  0.67153982  0.01209983    -0.15560
F1913       F  0.66006730  0.70087408  0.07464510    -0.15560
F1914       F  0.64564406  0.63296817  0.05144554    -0.13200
C1915       C  0.71457679  0.45648868  0.07160913     0.24810
C1916       C  0.72133274  0.44163829  0.10539415    -0.23290
C1917       C  0.69273889  0.43661995  0.12927803     0.19720
C1918       C  0.65857215  0.44949360  0.12079691     0.24760
C1919       C  0.65299595  0.46829468  0.08869869    -0.23240
C1920       C  0.68085577  0.47000528  0.06343704     0.19660
F1921       F  0.67586548  0.48609092  0.03122996    -0.13200
F1922       F  0.74184985  0.46195876  0.04826356    -0.15560
F1923       F  0.63188800  0.44626361  0.14514214    -0.15560
F1924       F  0.69883954  0.42270432  0.16225356    -0.13200
C1925       C  0.44068036  0.32072373  0.96967101     0.24810
C1926       C  0.41363378  0.34678203  0.96990176    -0.23290
C1927       C  0.38071972  0.33910575  0.95348443     0.19720
C1928       C  0.37352842  0.30438238  0.94115849     0.24760
C1929       C  0.39951569  0.27744749  0.94432887    -0.23240
C1930       C  0.43376104  0.28647956  0.95665357     0.19660
F1931       F  0.45907879  0.26080947  0.96037887    -0.13200
F1932       F  0.47346449  0.32795382  0.98360227    -0.15560
F1933       F  0.34005297  0.29600792  0.92983384    -0.15560
F1934       F  0.35457776  0.36413010  0.95234589    -0.13200
C1935       C  0.32070936  0.52775157  0.93891270     0.24810
C1936       C  0.34814723  0.52968050  0.91321998    -0.23290
C1937       C  0.34189867  0.54823754  0.88111618     0.19720
C1938       C  0.30745603  0.56064148  0.87308277     0.24760
C1939       C  0.27931052  0.55542487  0.89745665    -0.23240
C1940       C  0.28672937  0.54082816  0.93119904     0.19660
F1941       F  0.25986648  0.53513455  0.95496627    -0.13200
F1942       F  0.32636338  0.51180511  0.97107853    -0.15560
F1943       F  0.30068014  0.57428999  0.84012691    -0.15560
F1944       F  0.36818477  0.55160784  0.85635803    -0.13200
C1945       C  0.41168096  0.63453882  0.69953806     0.24810
C1946       C  0.40514009  0.66534608  0.71999351    -0.23290
C1947       C  0.43257078  0.69099402  0.72379781     0.19720
C1948       C  0.46672754  0.68430853  0.71064925     0.24760
C1949       C  0.47436272  0.65165133  0.69401329    -0.23240
C1950       C  0.44628788  0.62753552  0.68697848     0.19660
F1951       F  0.45324901  0.59557757  0.67136066    -0.13200
F1952       F  0.38547127  0.60989931  0.69431460    -0.15560
F1953       F  0.49350614  0.70777903  0.71813226    -0.15560
F1954       F  0.42673546  0.72207776  0.74157646    -0.13200
C1955       C  0.55293658  0.61450475  0.83991211     0.24810
C1956       C  0.53153005  0.58415254  0.84628455    -0.23290
C1957       C  0.52674758  0.55908616  0.81856762     0.19720
C1958       C  0.53992602  0.56596738  0.78438246     0.24760
C1959       C  0.55750853  0.59832165  0.77693138    -0.23240
C1960       C  0.56548117  0.62176373  0.80525092     0.19660
F1961       F  0.58207388  0.65340100  0.79853689    -0.13200
F1962       F  0.55917574  0.63852810  0.86638225    -0.15560
F1963       F  0.53154057  0.54311899  0.75740343    -0.15560
F1964       F  0.50799817  0.52840431  0.82415347    -0.13200
C1965       C  0.65559906  0.06207755  0.62735392     0.24810
C1966       C  0.64476569  0.04292451  0.59680790    -0.23290
C1967       C  0.67007662  0.03551079  0.57007881     0.19720
C1968       C  0.70590632  0.04448948  0.57496618     0.24760
C1969       C  0.71744938  0.06019778  0.60705102    -0.23240
C1970       C  0.69193821  0.07016083  0.63272103     0.19660
F1971       F  0.70258828  0.08481997  0.66418053    -0.13200
F1972       F  0.63153572  0.07055416  0.65307276    -0.15560
F1973       F  0.73010861  0.03437564  0.54992712    -0.15560
F1974       F  0.66027833  0.01863509  0.53943517    -0.13200
C1975       C  0.44383672  0.12838530  0.65973706     0.24810
C1976       C  0.45653169  0.09511790  0.64808363    -0.23290
C1977       C  0.45818739  0.06644304  0.67237209     0.19720
C1978       C  0.44989517  0.07159123  0.70834109     0.24760
C1979       C  0.44037794  0.10560588  0.72072817    -0.23240
C1980       C  0.43625734  0.13374287  0.69606004     0.19660
F1981       F  0.42827303  0.16711961  0.70773809    -0.13200
F1982       F  0.44166764  0.15630731  0.63662357    -0.15560
F1983       F  0.45466619  0.04426806  0.73180856    -0.15560
F1984       F  0.46910552  0.03364451  0.66144932    -0.13200
C1985       C  0.56683517  0.88887081  0.34180506     0.24810
C1986       C  0.53906755  0.91191685  0.35252025    -0.23290
C1987       C  0.52127885  0.93213617  0.32616137     0.19720
C1988       C  0.52888445  0.92726071  0.29008945     0.24760
C1989       C  0.55368832  0.90137870  0.27919423    -0.23240
C1990       C  0.57378938  0.88332211  0.30527926     0.19660
F1991       F  0.59807107  0.85836284  0.29541501    -0.13200
F1992       F  0.58582185  0.87022189  0.36645257    -0.15560
F1993       F  0.50954467  0.94558395  0.26538546    -0.15560
F1994       F  0.49585129  0.95634963  0.33509740    -0.13200
C1995       C  0.61752951  0.84378325  0.56550668     0.24810
C1996       C  0.59295161  0.85468588  0.53902707    -0.23290
C1997       C  0.57146797  0.82849711  0.52241560     0.19720
C1998       C  0.57625982  0.79239105  0.52998885     0.24760
C1999       C  0.60329753  0.78123867  0.55354594    -0.23240
C2000       C  0.62300514  0.80718495  0.57235731     0.19660
F2001       F  0.64922961  0.79707994  0.59529714    -0.13200
F2002       F  0.63759714  0.86831245  0.58326967    -0.15560
F2003       F  0.55650189  0.76785444  0.51178150    -0.15560
F2004       F  0.54593965  0.83766501  0.49825958    -0.13200
C2005       C  0.32690387  0.96750138  0.43619391     0.24810
C2006       C  0.35205333  0.95955832  0.40942514    -0.23290
C2007       C  0.34095138  0.94008700  0.37920526     0.19720
C2008       C  0.30460185  0.93189361  0.37427896     0.24760
C2009       C  0.27925393  0.94225333  0.39995991    -0.23240
C2010       C  0.29096283  0.95867529  0.43160608     0.19660
F2011       F  0.26691660  0.96918930  0.45662145    -0.13200
F2012       F  0.33698626  0.98467988  0.46657858    -0.15560
F2013       F  0.29373612  0.91680064  0.34309627    -0.15560
F2014       F  0.36476052  0.93140184  0.35332019    -0.13200
C2015       C  0.06717384  0.66929286  0.46904674     0.24810
C2016       C  0.09395109  0.64425397  0.46095269    -0.23290
C2017       C  0.12411378  0.65556422  0.44150324     0.19720
C2018       C  0.12895032  0.69198339  0.43344509     0.24760
C2019       C  0.10320801  0.71720454  0.44385744    -0.23240
C2020       C  0.07163308  0.70528037  0.46028284     0.19660
F2021       F  0.04656934  0.72918982  0.47090304    -0.13200
F2022       F  0.03685439  0.65905215  0.48623814    -0.15560
F2023       F  0.16008391  0.70303967  0.41839050    -0.15560
F2024       F  0.15000044  0.63187609  0.43264414    -0.13200
C2025       C  0.06640421  0.61120547  0.65995585     0.24810
C2026       C  0.03826222  0.58856799  0.64877194    -0.23290
C2027       C  0.02002707  0.56821217  0.67480523     0.19720
C2028       C  0.02770215  0.57246462  0.71097696     0.24760
C2029       C  0.05301797  0.59786444  0.72235522    -0.23240
C2030       C  0.07342735  0.61613559  0.69659736     0.19660
F2031       F  0.09816565  0.64068176  0.70692037    -0.13200
F2032       F  0.08579099  0.62999658  0.63566244    -0.15560
F2033       F  0.00796596  0.55402163  0.73534356    -0.15560
F2034       F  0.99411910  0.54443034  0.66547410    -0.13200
C2035       C  0.82746037  0.53289848  0.56015915     0.24810
C2036       C  0.85182339  0.54083284  0.58778841    -0.23290
C2037       C  0.84011774  0.56082368  0.61731148     0.19720
C2038       C  0.80380749  0.56935055  0.62086213     0.24760
C2039       C  0.77907564  0.55863499  0.59458350    -0.23240
C2040       C  0.79150908  0.54197404  0.56343063     0.19660
F2041       F  0.76806684  0.53122846  0.53780775    -0.13200
F2042       F  0.83826843  0.51538569  0.53029787    -0.15560
F2043       F  0.79220794  0.58471645  0.65157305    -0.15560
F2044       F  0.86319318  0.56957499  0.64395343    -0.13200
C2045       C  0.97333505  0.36676092  0.33795550     0.24810
C2046       C  0.96018602  0.39807031  0.35334656    -0.23290
C2047       C  0.93929590  0.42154447  0.33264056     0.19720
C2048       C  0.93412809  0.41518275  0.29603933     0.24760
C2049       C  0.94938842  0.38498383  0.28001861    -0.23240
C2050       C  0.96739987  0.35988833  0.30173599     0.19660
F2051       F  0.98173445  0.32999504  0.28707565    -0.13200
F2052       F  0.99324585  0.34368102  0.35761970    -0.15560
F2053       F  0.91704589  0.43996857  0.27579104    -0.15560
F2054       F  0.92617928  0.45196412  0.34733407    -0.13200
C2055       C  0.93196338  0.32657160  0.52695985     0.24810
C2056       C  0.90671316  0.35182214  0.53863905    -0.23290
C2057       C  0.87935536  0.34058603  0.56198023     0.19720
C2058       C  0.87517487  0.30412344  0.57022984     0.24760
C2059       C  0.89883362  0.27876070  0.55599478    -0.23240
C2060       C  0.92825815  0.29058457  0.53589469     0.19660
F2061       F  0.95150878  0.26657147  0.52189613    -0.13200
F2062       F  0.96001873  0.33653859  0.50614059    -0.15560
F2063       F  0.84634387  0.29325006  0.58942298    -0.15560
F2064       F  0.85534441  0.36443238  0.57480427    -0.13200
C2065       C  0.19506387  0.42988052  0.37310982     0.24810
C2066       C  0.22010982  0.43912288  0.39965502    -0.23290
C2067       C  0.20805020  0.45413004  0.43178740     0.19720
C2068       C  0.17206588  0.46270259  0.43611063     0.24760
C2069       C  0.14731103  0.45593228  0.40854234    -0.23240
C2070       C  0.15872935  0.43783557  0.37771610     0.19660
F2071       F  0.13529669  0.43046453  0.35096926    -0.13200
F2072       F  0.20631825  0.41640208  0.34139574    -0.15560
F2073       F  0.16156735  0.47860221  0.46697318    -0.15560
F2074       F  0.23181798  0.46373493  0.45756107    -0.13200
C2075       C  0.30002149  0.58951171  0.36627253     0.24810
C2076       C  0.27768744  0.59524084  0.33649488    -0.23290
C2077       C  0.27154827  0.56681569  0.31253698     0.19720
C2078       C  0.28440601  0.53274000  0.32002176     0.24760
C2079       C  0.30298090  0.52609034  0.35192073    -0.23240
C2080       C  0.31219018  0.55491940  0.37420862     0.19660
F2081       F  0.33001349  0.54895818  0.40526543    -0.13200
F2082       F  0.30777999  0.61667252  0.38906259    -0.15560
F2083       F  0.27495210  0.50519492  0.29827231    -0.15560
F2084       F  0.25190760  0.57162035  0.28234388    -0.13200
C2085       C  0.32410510  0.28666757  0.54263644     0.24810
C2086       C  0.35474479  0.30529588  0.53142672    -0.23290
C2087       C  0.37888870  0.31819233  0.55724315     0.19720
C2088       C  0.37360085  0.31037829  0.59364244     0.24760
C2089       C  0.34463913  0.28873156  0.60434866    -0.23240
C2090       C  0.31925241  0.27816785  0.57859002     0.19660
F2091       F  0.28989457  0.25891904  0.58809592    -0.13200
F2092       F  0.30048340  0.27383391  0.51814760    -0.15560
F2093       F  0.39797558  0.32187072  0.61799391    -0.15560
F2094       F  0.40898905  0.33572926  0.54692400    -0.13200
C2095       C  0.37014335  0.19454668  0.43349657     0.24810
C2096       C  0.39609521  0.21995045  0.44344689    -0.23290
C2097       C  0.42810531  0.20838523  0.45909822     0.19720
C2098       C  0.43273797  0.17249180  0.46787649     0.24760
C2099       C  0.40566420  0.14731699  0.46054447    -0.23240
C2100       C  0.37512230  0.15824115  0.44157595     0.19660
F2101       F  0.34900549  0.13432774  0.43337238    -0.13200
F2102       F  0.33869611  0.20533982  0.41901752    -0.15560
F2103       F  0.46340824  0.16250480  0.48451606    -0.15560
F2104       F  0.45336726  0.23255152  0.46917932    -0.13200
C2105       C  0.53608556  0.31758019  0.29296787     0.24810
C2106       C  0.52840252  0.35129974  0.30732576    -0.23290
C2107       C  0.55636730  0.37611198  0.31208903     0.19720
C2108       C  0.59086532  0.36844805  0.29957952     0.24760
C2109       C  0.59734694  0.33628311  0.28133943    -0.23240
C2110       C  0.57009288  0.31024617  0.27976675     0.19660
F2111       F  0.57595694  0.27807680  0.26404551    -0.13200
F2112       F  0.50941239  0.29341273  0.28762360    -0.15560
F2113       F  0.61696117  0.39358100  0.30253061    -0.15560
F2114       F  0.54935247  0.40908973  0.32539382    -0.13200
C2115       C  0.45455537  0.37792238  0.16073663     0.24810
C2116       C  0.46898674  0.41182131  0.15327756    -0.23290
C2117       C  0.46654430  0.43890865  0.17926013     0.19720
C2118       C  0.45320316  0.43130861  0.21327892     0.24760
C2119       C  0.44268928  0.39638151  0.22212651    -0.23240
C2120       C  0.44182482  0.37012739  0.19516538     0.19660
F2121       F  0.43252215  0.33597322  0.20338618    -0.13200
F2122       F  0.45581000  0.35157476  0.13585260    -0.15560
F2123       F  0.45476644  0.45693513  0.23894201    -0.15560
F2124       F  0.47859302  0.47248809  0.17217328    -0.13200
C2125       C  0.81086535  0.71426099  0.57119863     0.24810
C2126       C  0.83754252  0.71643415  0.59769030    -0.23290
C2127       C  0.87146204  0.70215908  0.59074595     0.19720
C2128       C  0.87979823  0.69009104  0.55627807     0.24760
C2129       C  0.85403467  0.69146939  0.52886330    -0.23240
C2130       C  0.81899393  0.70156244  0.53715528     0.19660
F2131       F  0.79386310  0.70353980  0.51098856    -0.13200
F2132       F  0.77726386  0.72617761  0.57776487    -0.15560
F2133       F  0.91399785  0.68095769  0.54856199    -0.15560
F2134       F  0.89735768  0.70306887  0.61617581    -0.13200
C2135       C  0.70261143  0.59271880  0.87189137     0.24810
C2136       C  0.72024819  0.59987826  0.83949299    -0.23290
C2137       C  0.72087604  0.57334958  0.81284015     0.19720
C2138       C  0.70738364  0.53925765  0.81972289     0.24760
C2139       C  0.69387003  0.53073209  0.85364794    -0.23240
C2140       C  0.68993162  0.55806642  0.87914424     0.19660
F2141       F  0.67731893  0.55023913  0.91226791    -0.13200
F2142       F  0.70048797  0.61823367  0.89756114    -0.15560
F2143       F  0.71185770  0.51318822  0.79487927    -0.15560
F2144       F  0.73603577  0.57997745  0.78050055    -0.13200
C2145       C  0.57181715  0.81209174  0.72457157     0.24810
C2146       C  0.59943310  0.83735174  0.71977039    -0.23290
C2147       C  0.59300040  0.86760273  0.69834625     0.19720
C2148       C  0.55828031  0.87468919  0.68598754     0.24760
C2149       C  0.53007910  0.85109552  0.69411289    -0.23240
C2150       C  0.53762700  0.81874251  0.71149986     0.19660
F2151       F  0.51072710  0.79571926  0.71990352    -0.13200
F2152       F  0.57750407  0.78146317  0.74327542    -0.15560
F2153       F  0.55144963  0.90621891  0.66937217    -0.15560
F2154       F  0.61947247  0.89166482  0.69192542    -0.13200
C2155       C  0.79475819  0.92340221  0.68240864     0.24810
C2156       C  0.78187460  0.90022438  0.65569218    -0.23290
C2157       C  0.78387991  0.91062229  0.61977575     0.19720
C2158       C  0.79502424  0.94534421  0.61102827     0.24760
C2159       C  0.80441296  0.96984707  0.63815187    -0.23240
C2160       C  0.80618710  0.95795374  0.67366642     0.19660
F2161       F  0.81481115  0.98109759  0.70029012    -0.13200
F2162       F  0.79416751  0.91324225  0.71728746    -0.15560
F2163       F  0.79256129  0.95650720  0.57654966    -0.15560
F2164       F  0.77181538  0.88850225  0.59362771    -0.13200
C2165       C  0.69106408  0.78277116  0.93048590     0.24810
C2166       C  0.66479072  0.78317598  0.90350412    -0.23290
C2167       C  0.63183186  0.79962158  0.91034692     0.19720
C2168       C  0.62378399  0.81142746  0.94500138     0.24760
C2169       C  0.64894035  0.80766130  0.97274658    -0.23240
C2170       C  0.68328353  0.79522407  0.96470426     0.19660
F2171       F  0.70778607  0.79086352  0.99117243    -0.13200
F2172       F  0.72386167  0.76868956  0.92417024    -0.15560
F2173       F  0.59021245  0.82281981  0.95242275    -0.15560
F2174       F  0.60638430  0.80122794  0.88450894    -0.13200
C2175       C  0.93118338  0.69159405  0.77626364     0.24810
C2176       C  0.90356612  0.66651370  0.78194459    -0.23290
C2177       C  0.91003983  0.63696712  0.80430846     0.19720
C2178       C  0.94480332  0.63016125  0.81662763     0.24760
C2179       C  0.97306247  0.65322052  0.80730597    -0.23240
C2180       C  0.96549265  0.68514843  0.78916107     0.19660
F2181       F  0.99243483  0.70770236  0.77973174    -0.13200
F2182       F  0.92539759  0.72171406  0.75677822    -0.15560
F2183       F  0.95164475  0.59912685  0.83415249    -0.15560
F2184       F  0.88357076  0.61316405  0.81163952    -0.13200
C2185       C  0.79852166  0.03770970  0.81813353     0.24810
C2186       C  0.80988941  0.02917951  0.85282877    -0.23290
C2187       C  0.81178058  0.05642177  0.87872728     0.19720
C2188       C  0.79888329  0.09076434  0.87103048     0.24760
C2189       C  0.78333076  0.09784401  0.83758809    -0.23240
C2190       C  0.78505358  0.07163656  0.81063712     0.19660
F2191       F  0.77209658  0.07836530  0.77736005    -0.13200
F2192       F  0.79609303  0.01178799  0.79282825    -0.15560
F2193       F  0.79854722  0.11590439  0.89716285    -0.15560
F2194       F  0.82213639  0.04853384  0.91262417    -0.13200
C2195       C  0.53927238  0.17630554  0.79803210     0.24810
C2196       C  0.53074854  0.14076393  0.80650668    -0.23290
C2197       C  0.55778550  0.11471292  0.80548880     0.19720
C2198       C  0.59208100  0.12358104  0.79310044     0.24760
C2199       C  0.59920920  0.15833835  0.78072378    -0.23240
C2200       C  0.57309248  0.18497407  0.78491336     0.19660
F2201       F  0.57987201  0.21923942  0.77481420    -0.13200
F2202       F  0.51348905  0.20176468  0.79832647    -0.15560
F2203       F  0.61718145  0.09765271  0.79023961    -0.15560
F2204       F  0.54986448  0.08005210  0.81297283    -0.13200
C2205       C  0.63230430  0.19962251  0.59122213     0.24810
C2206       C  0.66342938  0.21975740  0.59783741    -0.23290
C2207       C  0.68921340  0.22297701  0.57060031     0.19720
C2208       C  0.68245621  0.20951932  0.53650678     0.24760
C2209       C  0.64954211  0.19323428  0.52869713    -0.23240
C2210       C  0.62518273  0.18683505  0.55663196     0.19660
F2211       F  0.59297676  0.17159190  0.54951785    -0.13200
F2212       F  0.60753726  0.19494436  0.61730860    -0.15560
F2213       F  0.70617558  0.21641034  0.50987638    -0.15560
F2214       F  0.72054699  0.24045879  0.57657457    -0.13200
C2215       C  0.69574377  0.40922890  0.63783020     0.24810
C2216       C  0.72306487  0.40396064  0.66332811    -0.23290
C2217       C  0.73504622  0.43361561  0.68337186     0.19720
C2218       C  0.72254626  0.46781812  0.67592587     0.24760
C2219       C  0.69858135  0.47362309  0.64762069    -0.23240
C2220       C  0.68398887  0.44399786  0.62964518     0.19660
F2221       F  0.66065527  0.44898713  0.60230099    -0.13200
F2222       F  0.68208945  0.38116626  0.61926318    -0.15560
F2223       F  0.73726329  0.49605559  0.69351743    -0.15560
F2224       F  0.75998220  0.42992870  0.70954002    -0.13200
C2225       C  0.86599770  0.29959452  0.91243558     0.24810
C2226       C  0.83315755  0.28378927  0.90338985    -0.23290
C2227       C  0.80466285  0.28538596  0.92788228     0.19720
C2228       C  0.81010596  0.29873333  0.96230819     0.24760
C2229       C  0.84421905  0.31015180  0.97294269    -0.23240
C2230       C  0.87155591  0.31257599  0.94717520     0.19660
F2231       F  0.90493379  0.32293669  0.95709727    -0.13200
F2232       F  0.89361006  0.29922802  0.88894772    -0.15560
F2233       F  0.78338357  0.29607076  0.98670252    -0.15560
F2234       F  0.77192147  0.27228144  0.91902518    -0.13200
C2235       C  0.93136947  0.31006316  0.72626223     0.24810
C2236       C  0.90388982  0.33507576  0.72059859    -0.23290
C2237       C  0.91063351  0.36486174  0.69854776     0.19720
C2238       C  0.94546744  0.37177147  0.68629926     0.24760
C2239       C  0.97350272  0.34842733  0.69512675    -0.23240
C2240       C  0.96567109  0.31650131  0.71327961     0.19660
F2241       F  0.99239141  0.29372772  0.72238053    -0.13200
F2242       F  0.92542267  0.27988223  0.74565701    -0.15560
F2243       F  0.95253783  0.40292388  0.66899505    -0.15560
F2244       F  0.88432471  0.38868832  0.69134083    -0.13200
C2245       C  0.77599275  0.57481594  0.18637427     0.24810
C2246       C  0.78993727  0.59995253  0.16195208    -0.23290
C2247       C  0.81457218  0.58831551  0.13602231     0.19720
C2248       C  0.82198351  0.55169118  0.13224720     0.24760
C2249       C  0.80556499  0.52653118  0.15491902    -0.23240
C2250       C  0.78408239  0.53866116  0.18312206     0.19660
F2251       F  0.76801724  0.51485361  0.20545539    -0.13200
F2252       F  0.75378641  0.58505671  0.21314791    -0.15560
F2253       F  0.84262635  0.54056093  0.10463404    -0.15560
F2254       F  0.82960155  0.61198770  0.11291832    -0.13200
C2255       C  0.87397633  0.80707985  0.09165091     0.24810
C2256       C  0.84404979  0.78744658  0.10337370    -0.23290
C2257       C  0.81663390  0.77947905  0.07880124     0.19720
C2258       C  0.82025311  0.78849356  0.04280728     0.24760
C2259       C  0.85161316  0.80501161  0.03040841    -0.23240
C2260       C  0.87796896  0.81537402  0.05521054     0.19660
F2261       F  0.90888003  0.83057778  0.04368098    -0.13200
F2262       F  0.90042255  0.81590927  0.11492445    -0.15560
F2263       F  0.79458937  0.77797534  0.01929726    -0.15560
F2264       F  0.78649445  0.76218302  0.08948974    -0.13200
C2265       C  0.57811310  0.68602655  0.21839736     0.24810
C2266       C  0.60294007  0.65927596  0.20952967    -0.23290
C2267       C  0.59144906  0.62977849  0.18918677     0.19720
C2268       C  0.55503923  0.62536198  0.18114826     0.24760
C2269       C  0.52998886  0.65079052  0.19264168    -0.23240
C2270       C  0.54207701  0.68191953  0.20978306     0.19660
F2271       F  0.51830871  0.70669858  0.22134206    -0.13200
F2272       F  0.58857182  0.71585744  0.23632785    -0.15560
F2273       F  0.54379196  0.59469665  0.16526333    -0.15560
F2274       F  0.61492410  0.60398606  0.17951365    -0.13200
C2275       C  0.68519025  0.71947538  0.42180090     0.24810
C2276       C  0.65821818  0.71135522  0.39678560    -0.23290
C2277       C  0.62815180  0.69166675  0.40801932     0.19720
C2278       C  0.62347552  0.68359598  0.44439220     0.24760
C2279       C  0.64923321  0.69432358  0.46963669    -0.23240
C2280       C  0.68084610  0.71075279  0.45779221     0.19660
F2281       F  0.70599368  0.72148381  0.48175781    -0.13200
F2282       F  0.71552853  0.73669148  0.41154737    -0.15560
F2283       F  0.59239850  0.66834753  0.45540805    -0.15560
F2284       F  0.60216726  0.68262888  0.38431023    -0.13200
C2285       C  0.92327242  0.81403428  0.28673960     0.24810
C2286       C  0.89872686  0.84208776  0.29105185    -0.23290
C2287       C  0.91012893  0.87408297  0.30716189     0.19720
C2288       C  0.94635482  0.87910124  0.31561123     0.24760
C2289       C  0.97123751  0.85181946  0.30893984    -0.23240
C2290       C  0.95912637  0.81878575  0.29587129     0.19660
F2291       F  0.98278503  0.79231634  0.28866041    -0.13200
F2292       F  0.91269489  0.78222358  0.27270850    -0.15560
F2293       F  0.95772320  0.91164374  0.32707937    -0.15560
F2294       F  0.88683123  0.90135324  0.31207266    -0.13200
C2295       C  0.68745031  0.90972178  0.36557366     0.24810
C2296       C  0.71228896  0.89866805  0.33957198    -0.23290
C2297       C  0.72644327  0.92432664  0.31582865     0.19720
C2298       C  0.71837485  0.96039025  0.31986149     0.24760
C2299       C  0.69665545  0.97186842  0.34815256    -0.23240
C2300       C  0.68001503  0.94623759  0.37010658     0.19660
F2301       F  0.65907122  0.95675218  0.39773524    -0.13200
F2302       F  0.67220274  0.88555454  0.38801568    -0.15560
F2303       F  0.73453035  0.98468089  0.29811930    -0.15560
F2304       F  0.74880236  0.91468072  0.28895834    -0.13200
loop_ 
_geom_bond_atom_site_label_1 
_geom_bond_atom_site_label_2 
_geom_bond_distance 
_geom_bond_site_symmetry_2 
_ccdc_geom_bond_type 
O1           Mg3   2.114       .  S
O1           Mg9   2.128       .  S
O1           C36   1.241       .  S
C2           O15   1.241       .  S
C2           O39   1.275       .  A
C2           H41   1.081       .  S
Mg3          O32   2.125       .  S
Mg3          O47   2.301       .  S
Mg3          O43   2.267       .  S
Mg3          O14   2.310       .  S
O4          Mg46   2.125       .  S
O4          Mg29   2.117       .  S
O4           C25   1.241       .  S
O5           C36   1.275       .  A
O5          Mg29   2.308       .  S
C6            O8   1.271       .  A
C6           O20   1.275       .  A
C6         C2296   1.482       .  S
O7           C35   1.274       .  A
O7           Mg9   2.308       .  S
O8          Mg40   2.269       .  S
Mg9          O15   2.113       .  S
Mg9          O23   2.271       .  S
Mg9          O11   2.299       .  S
C10          O48   1.271       .  A
C10          O16   1.276       .  A
C10        C2286   1.475       .  S
O11          C18   1.275       .  A
H12          C25   1.081       .  S
C13          O27   1.241       .  S
C13          O28   1.275       .  A
C13          H38   1.081       .  S
O14          C37   1.275       .  A
O15         Mg29   2.128       .  S
O16         Mg46   2.309       .  S
C17          O30   1.271       .  A
C17          O22   1.276       .  A
C17        C2256   1.479       .  S
C18          O45   1.272       .  A
C18        C2246   1.483       .  S
Mg19         O26   2.115       .  S
Mg19         O27   2.126       .  S
Mg19         O20   2.298       .  S
Mg19         O21   2.309       .  S
Mg19         O48   2.268       .  S
O21          C25   1.274       .  A
O22         Mg29   2.308       .  S
O23          C42   1.271       .  A
O24          C44   1.276       .  A
O24         Mg40   2.306       .  S
O26         Mg40   2.129       .  S
O26          C37   1.241       .  S
O27         Mg46   2.119       .  S
O28         Mg40   2.310       .  S
Mg29         O45   2.273       .  S
O30         Mg46   2.271       .  S
H31          C36   1.081       .  S
O32         Mg40   2.113       .  S
O32          C35   1.241       .  S
H33          C35   1.081       .  S
H34          C37   1.081       .  S
O39         Mg46   2.309       .  S
C42          O47   1.275       .  A
C42        C2266   1.478       .  S
O43          C44   1.271       .  A
C44        C2276   1.478       .  S
O49         Mg51   2.113       .  S
O49         Mg57   2.116       .  S
O49          C84   1.241       .  S
C50          O63   1.241       .  S
C50          O87   1.274       .  A
C50          H89   1.081       .  S
Mg51         O80   2.113       .  S
Mg51         O95   2.322       .  S
Mg51         O91   2.237       .  S
Mg51         O62   2.318       .  S
O52         Mg94   2.120       .  S
O52         Mg77   2.118       .  S
O52          C73   1.241       .  S
O53          C84   1.274       .  A
O53         Mg77   2.304       .  S
C54          O56   1.269       .  A
C54          O68   1.276       .  A
C54        C2216   1.488       .  S
O55          C83   1.275       .  A
O55         Mg57   2.312       .  S
O56         Mg88   2.235       .  S
Mg57         O63   2.114       .  S
Mg57         O71   2.240       .  S
Mg57         O59   2.325       .  S
C58          O96   1.271       .  A
C58          O64   1.275       .  A
C58        C2206   1.479       .  S
O59          C66   1.275       .  A
H60          C73   1.081       .  S
C61          O75   1.241       .  S
C61          O76   1.275       .  A
C61          H86   1.081       .  S
O62          C85   1.276       .  A
O63         Mg77   2.119       .  S
O64         Mg94   2.328       .  S
C65          O78   1.272       .  A
C65          O70   1.275       .  A
C65        C2199   1.475       .  S
C66          O93   1.272       .  A
C66        C2189   1.477       .  S
Mg67         O74   2.126       .  S
Mg67         O75   2.112       .  S
Mg67         O68   2.343       .  S
Mg67         O69   2.311       .  S
Mg67         O96   2.241       .  S
O69          C73   1.275       .  A
O70         Mg77   2.319       .  S
O71          C90   1.271       .  A
O72          C92   1.274       .  A
O72         Mg88   2.328       .  S
O74         Mg88   2.108       .  S
O74          C85   1.241       .  S
O75         Mg94   2.125       .  S
O76         Mg88   2.317       .  S
Mg77         O93   2.241       .  S
O78         Mg94   2.245       .  S
H79          C84   1.081       .  S
O80         Mg88   2.120       .  S
O80          C83   1.242       .  S
H81          C83   1.081       .  S
H82          C85   1.081       .  S
O87         Mg94   2.303       .  S
C90          O95   1.274       .  A
C90        C2226   1.475       .  S
O91          C92   1.270       .  A
C92        C2236   1.480       .  S
O97         Mg99   2.116       .  S
O97        Mg105   2.123       .  S
O97         C132   1.241       .  S
C98         O111   1.241       .  S
C98         O135   1.274       .  A
C98         H137   1.081       .  S
Mg99        O128   2.115       .  S
Mg99        O143   2.320       .  S
Mg99        O139   2.235       .  S
Mg99        O110   2.312       .  S
O100       Mg142   2.115       .  S
O100       Mg125   2.124       .  S
O100        C121   1.241       .  S
O101        C132   1.274       .  A
O101       Mg125   2.304       .  S
C102        O104   1.270       .  A
C102        O116   1.274       .  A
C102       C2136   1.476       .  S
O103        C131   1.274       .  A
O103       Mg105   2.306       .  S
O104       Mg136   2.239       .  S
Mg105       O111   2.112       .  S
Mg105       O119   2.236       .  S
Mg105       O107   2.316       .  S
C106        O144   1.270       .  A
C106        O112   1.275       .  A
C106       C2166   1.475       .  S
O107        C114   1.274       .  A
H108        C121   1.081       .  S
C109        O123   1.241       .  S
C109        O124   1.275       .  A
C109        H134   1.081       .  S
O110        C133   1.275       .  A
O111       Mg125   2.120       .  S
O112       Mg142   2.325       .  S
C113        O126   1.271       .  A
C113        O118   1.275       .  A
C113       C2146   1.479       .  S
C114        O141   1.272       .  A
C114       C2156   1.470       .  S
Mg115       O122   2.116       .  S
Mg115       O123   2.118       .  S
Mg115       O116   2.324       .  S
Mg115       O117   2.310       .  S
Mg115       O144   2.234       .  S
O117        C121   1.274       .  A
O118       Mg125   2.328       .  S
O119        C138   1.271       .  A
O120        C140   1.274       .  A
O120       Mg136   2.324       .  S
O122       Mg136   2.112       .  S
O122        C133   1.241       .  S
O123       Mg142   2.121       .  S
O124       Mg136   2.313       .  S
Mg125       O141   2.247       .  S
O126       Mg142   2.237       .  S
H127        C132   1.081       .  S
O128       Mg136   2.119       .  S
O128        C131   1.240       .  S
H129        C131   1.081       .  S
H130        C133   1.081       .  S
O135       Mg142   2.308       .  S
C138        O143   1.274       .  A
C138       C2126   1.474       .  S
O139        C140   1.270       .  A
C140       C2176   1.478       .  S
C145       C2106   1.472       .  S
C145        C146   1.404       .  A
C145        C150   1.388       .  A
C146        H151   1.082       .  S
C146        C147   1.421       .  A
C147        C163   1.500       .  S
C147        C148   1.420       .  A
C148        H152   1.082       .  S
C148        C149   1.404       .  A
C149       C2119   1.472       .  S
C149        C150   1.388       .  A
C150        H153   1.087       .  S
C154       C2086   1.475       .  S
C154        C155   1.405       .  A
C154        C159   1.390       .  A
C155        H160   1.083       .  S
C155        C156   1.420       .  A
C156        C165   1.496       .  S
C156        C157   1.417       .  A
C157        H161   1.083       .  S
C157        C158   1.402       .  A
C158       C2096   1.471       .  S
C158        C159   1.389       .  A
C159        H162   1.086       .  S
C163        C164   1.409       .  A
C163        C168   1.410       .  A
C164        H169   1.082       .  S
C164        C165   1.409       .  A
C165        C166   1.407       .  A
C166        H170   1.082       .  S
C166        C167   1.408       .  A
C167        C174   1.498       .  S
C167        C168   1.410       .  A
C168        H171   1.082       .  S
C172       C2079   1.471       .  S
C172        C173   1.403       .  A
C172        C177   1.389       .  A
C173        H178   1.082       .  S
C173        C174   1.419       .  A
C174        C175   1.420       .  A
C175        H179   1.083       .  S
C175        C176   1.403       .  A
C176       C2066   1.473       .  S
C176        C177   1.388       .  A
C177        H180   1.087       .  S
O181       Mg183   2.108       .  S
O181       Mg189   2.126       .  S
O181        C216   1.241       .  S
C182        O195   1.241   1_455  S
C182        O219   1.274       .  A
C182        H221   1.081       .  S
Mg183       O212   2.131       .  S
Mg183       O227   2.299       .  S
Mg183       O223   2.249       .  S
Mg183       O194   2.305       .  S
O184       Mg226   2.131       .  S
O184       Mg209   2.112   1_455  S
O184        C205   1.242   1_455  S
O185        C216   1.274       .  A
O185       Mg209   2.306       .  S
C186        O188   1.272       .  A
C186        O200   1.277       .  A
C186       C2069   1.477       .  S
O187        C215   1.275   1_655  A
O187       Mg189   2.311       .  S
O188       Mg220   2.273       .  S
Mg189       O195   2.111       .  S
Mg189       O203   2.271       .  S
Mg189       O191   2.304       .  S
C190        O228   1.272       .  A
C190        O196   1.276       .  A
C190       C2016   1.480       .  S
O191        C198   1.275       .  A
H192        C205   1.081       .  S
C193        O207   1.240       .  S
C193        O208   1.274       .  A
C193        H218   1.081       .  S
O194        C217   1.274       .  A
O195       Mg209   2.128       .  S
O196       Mg226   2.305       .  S
C197        O210   1.273       .  A
C197        O202   1.275   1_455  A
C197       C2026   1.487       .  S
C198        O225   1.271       .  A
C198       C2036   1.477       .  S
Mg199       O206   2.126       .  S
Mg199       O207   2.125       .  S
Mg199       O200   2.310       .  S
Mg199       O201   2.308       .  S
Mg199       O228   2.278       .  S
O201        C205   1.275   1_455  A
O202       Mg209   2.295       .  S
O203        C222   1.271       .  A
O204        C224   1.277   1_455  A
O204       Mg220   2.324       .  S
O206       Mg220   2.133       .  S
O206        C217   1.241   1_455  S
O207       Mg226   2.118       .  S
O208       Mg220   2.309       .  S
Mg209       O225   2.269       .  S
O210       Mg226   2.278       .  S
H211        C216   1.081       .  S
O212       Mg220   2.118   1_655  S
O212        C215   1.242   1_655  S
H213        C215   1.081       .  S
H214        C217   1.081       .  S
O219       Mg226   2.305       .  S
C222        O227   1.275       .  A
C222       C2056   1.482       .  S
O223        C224   1.269       .  A
C224       C2046   1.469       .  S
O229       Mg231   2.112       .  S
O229       Mg237   2.134       .  S
O229        C264   1.241       .  S
C230        O243   1.240   1_545  S
C230        O267   1.274       .  A
C230        H269   1.081       .  S
Mg231       O260   2.128       .  S
Mg231       O275   2.296       .  S
Mg231       O271   2.274       .  S
Mg231       O242   2.310       .  S
O232       Mg274   2.127       .  S
O232       Mg257   2.121   1_545  S
O232        C253   1.241   1_545  S
O233        C264   1.274       .  A
O233       Mg257   2.303       .  S
C234        O236   1.270       .  A
C234        O248   1.275       .  A
C234       C2099   1.476       .  S
O235        C263   1.274   1_565  A
O235       Mg237   2.304       .  S
O236       Mg268   2.265       .  S
Mg237       O243   2.114       .  S
Mg237       O251   2.276       .  S
Mg237       O239   2.300       .  S
C238        O276   1.270       .  A
C238        O244   1.275       .  A
C238       C1976   1.472       .  S
O239        C246   1.276       .  A
H240        C253   1.081       .  S
C241        O255   1.241       .  S
C241        O256   1.275       .  A
C241        H266   1.081       .  S
O242        C265   1.275       .  A
O243       Mg257   2.132       .  S
O244       Mg274   2.308       .  S
C245        O258   1.271       .  A
C245        O250   1.277       .  A
C245       C1966   1.478       .  S
C246        O273   1.273       .  A
C246       C1996   1.486       .  S
Mg247       O254   2.117       .  S
Mg247       O255   2.125       .  S
Mg247       O248   2.301       .  S
Mg247       O249   2.311       .  S
Mg247       O276   2.266       .  S
O249        C253   1.275   1_545  A
O250       Mg257   2.310   1_545  S
O251        C270   1.273       .  A
O252        C272   1.275   1_545  A
O252       Mg268   2.303       .  S
O254       Mg268   2.126       .  S
O254        C265   1.241   1_545  S
O255       Mg274   2.123       .  S
O256       Mg268   2.314       .  S
Mg257       O273   2.279       .  S
O258       Mg274   2.272       .  S
H259        C264   1.081       .  S
O260       Mg268   2.111   1_565  S
O260        C263   1.241   1_565  S
H261        C263   1.081       .  S
H262        C265   1.081       .  S
O267       Mg274   2.306       .  S
C270        O275   1.275       .  A
C270       C1986   1.486       .  S
O271        C272   1.271       .  A
C272       C2006   1.479       .  S
C277        C299   1.502       .  S
C277        C278   1.408       .  A
C277        C282   1.409       .  A
C278        H283   1.081       .  S
C278        C279   1.412       .  A
C279        C290   1.501       .  S
C279        C280   1.412       .  A
C280        H284   1.081       .  S
C280        C281   1.410       .  A
C281        C308   1.502       .  S
C281        C282   1.409       .  A
C282        H285   1.081       .  S
C286       C1959   1.473       .  S
C286        C287   1.388       .  A
C286        C291   1.405       .  A
C287        H292   1.087       .  S
C287        C288   1.387       .  A
C288       C1949   1.471       .  S
C288        C289   1.403       .  A
C289        H293   1.082       .  S
C289        C290   1.421       .  A
C290        C291   1.422       .  A
C291        H294   1.082       .  S
C295       C2279   1.473       .  S
C295        C296   1.387       .  A
C295        C300   1.401       .  A
C296        H301   1.086       .  S
C296        C297   1.391       .  A
C297       C1999   1.480       .  S
C297        C298   1.408       .  A
C298        H302   1.082       .  S
C298        C299   1.422       .  A
C299        C300   1.420       .  A
C300        H303   1.082       .  S
C304       C2039   1.473       .  S
C304        C305   1.387       .  A
C304        C309   1.401       .  A
C305        H310   1.087       .  S
C305        C306   1.390       .  A
C306       C2219   1.477       .  S
C306        C307   1.407       .  A
C307        H311   1.082       .  S
C307        C308   1.422       .  A
C308        C309   1.420       .  A
C309        H312   1.082       .  S
O313       Mg315   2.118   1_554  S
O313       Mg321   2.118       .  S
O313        C348   1.241       .  S
C314        O327   1.241       .  S
C314        O351   1.275       .  A
C314        H353   1.081       .  S
Mg315       O344   2.116       .  S
Mg315       O359   2.322       .  S
Mg315       O355   2.238       .  S
Mg315       O326   2.311       .  S
O316       Mg358   2.116       .  S
O316       Mg341   2.119       .  S
O316        C337   1.241       .  S
O317        C348   1.274       .  A
O317       Mg341   2.306       .  S
C318        O320   1.271       .  A
C318        O332   1.276       .  A
C318       C1956   1.481       .  S
O319        C347   1.275       .  A
O319       Mg321   2.309   1_556  S
O320       Mg352   2.239       .  S
Mg321       O327   2.116       .  S
Mg321       O335   2.238       .  S
Mg321       O323   2.322       .  S
C322        O360   1.271   1_554  A
C322        O328   1.275       .  A
C322       C1906   1.478       .  S
O323        C330   1.275       .  A
H324        C337   1.081       .  S
C325        O339   1.241       .  S
C325        O340   1.275       .  A
C325        H350   1.081       .  S
O326        C349   1.275       .  A
O327       Mg341   2.120       .  S
O328       Mg358   2.326       .  S
C329        O342   1.271       .  A
C329        O334   1.275       .  A
C329       C1919   1.480       .  S
C330        O357   1.272       .  A
C330       C2116   1.476       .  S
Mg331       O338   2.120       .  S
Mg331       O339   2.115       .  S
Mg331       O332   2.331       .  S
Mg331       O333   2.311   1_556  S
Mg331       O360   2.240       .  S
O333        C337   1.275       .  A
O334       Mg341   2.326       .  S
O335        C354   1.271   1_554  A
O336        C356   1.275       .  A
O336       Mg352   2.325       .  S
O338       Mg352   2.114       .  S
O338        C349   1.241       .  S
O339       Mg358   2.121   1_556  S
O340       Mg352   2.312       .  S
Mg341       O357   2.244       .  S
O342       Mg358   2.242       .  S
H343        C348   1.081       .  S
O344       Mg352   2.118       .  S
O344        C347   1.241       .  S
H345        C347   1.081       .  S
H346        C349   1.081       .  S
O351       Mg358   2.307       .  S
C354        O359   1.274       .  A
C354       C1926   1.475       .  S
O355        C356   1.271       .  A
C356       C1936   1.478       .  S
O361       Mg363   2.112       .  S
O361       Mg369   2.122       .  S
O361        C396   1.241       .  S
C362        O375   1.241       .  S
C362        O399   1.275       .  A
C362        H401   1.081       .  S
Mg363       O392   2.120       .  S
Mg363       O407   2.312       .  S
Mg363       O403   2.235       .  S
Mg363       O374   2.308       .  S
O364       Mg406   2.113       .  S
O364       Mg389   2.122       .  S
O364        C385   1.241       .  S
O365        C396   1.274       .  A
O365       Mg389   2.307       .  S
C366        O368   1.269       .  A
C366        O380   1.274       .  A
C366       C1856   1.477       .  S
O367        C395   1.274       .  A
O367       Mg369   2.303       .  S
O368       Mg400   2.234       .  S
Mg369       O375   2.120       .  S
Mg369       O383   2.243       .  S
Mg369       O371   2.322       .  S
C370        O408   1.269       .  A
C370        O376   1.275       .  A
C370       C1896   1.482       .  S
O371        C378   1.275       .  A
H372        C385   1.081       .  S
C373        O387   1.241       .  S
C373        O388   1.275       .  A
C373        H398   1.081       .  S
O374        C397   1.274       .  A
O375       Mg389   2.116       .  S
O376       Mg406   2.332       .  S
C377        O390   1.271       .  A
C377        O382   1.275       .  A
C377       C1866   1.480       .  S
C378        O405   1.271       .  A
C378       C1889   1.477       .  S
Mg379       O386   2.118       .  S
Mg379       O387   2.109       .  S
Mg379       O380   2.320       .  S
Mg379       O381   2.315       .  S
Mg379       O408   2.233       .  S
O381        C385   1.275       .  A
O382       Mg389   2.329       .  S
O383        C402   1.272       .  A
O384        C404   1.274       .  A
O384       Mg400   2.320       .  S
O386       Mg400   2.114       .  S
O386        C397   1.240       .  S
O387       Mg406   2.122       .  S
O388       Mg400   2.315       .  S
Mg389       O405   2.241       .  S
O390       Mg406   2.238       .  S
H391        C396   1.081       .  S
O392       Mg400   2.114       .  S
O392        C395   1.241       .  S
H393        C395   1.081       .  S
H394        C397   1.081       .  S
O399       Mg406   2.310       .  S
C402        O407   1.274       .  A
C402       C1846   1.471       .  S
O403        C404   1.270       .  A
C404       C1876   1.475       .  S
O409       Mg411   2.118   1_655  S
O409       Mg417   2.119       .  S
O409        C444   1.241       .  S
C410        O423   1.240       .  S
C410        O447   1.275       .  A
C410        H449   1.081       .  S
Mg411       O440   2.120       .  S
Mg411       O455   2.314       .  S
Mg411       O451   2.241       .  S
Mg411       O422   2.304   1_554  S
O412       Mg454   2.106       .  S
O412       Mg437   2.126   1_556  S
O412        C433   1.241       .  S
O413        C444   1.275       .  A
O413       Mg437   2.311   1_565  S
C414        O416   1.270   1_545  A
C414        O428   1.275       .  A
C414       C1786   1.478       .  S
O415        C443   1.274       .  A
O415       Mg417   2.304   1_455  S
O416       Mg448   2.236       .  S
Mg417       O423   2.125   1_565  S
Mg417       O431   2.244       .  S
Mg417       O419   2.327       .  S
C418        O456   1.270   1_655  A
C418        O424   1.274       .  A
C418       C1826   1.479       .  S
O419        C426   1.275       .  A
H420        C433   1.081       .  S
C421        O435   1.241       .  S
C421        O436   1.275       .  A
C421        H446   1.081       .  S
O422        C445   1.274       .  A
O423       Mg437   2.111       .  S
O424       Mg454   2.321       .  S
C425        O438   1.269   1_554  A
C425        O430   1.276       .  A
C425       C1806   1.492       .  S
C426        O453   1.271   1_565  A
C426       C1816   1.479       .  S
Mg427       O434   2.112   1_545  S
Mg427       O435   2.114       .  S
Mg427       O428   2.324       .  S
Mg427       O429   2.317   1_455  S
Mg427       O456   2.238       .  S
O429        C433   1.276       .  A
O430       Mg437   2.346       .  S
O431        C450   1.272   1_655  A
O432        C452   1.275       .  A
O432       Mg448   2.320       .  S
O434       Mg448   2.114       .  S
O434        C445   1.241       .  S
O435       Mg454   2.119   1_455  S
O436       Mg448   2.313   1_545  S
Mg437       O453   2.239       .  S
O438       Mg454   2.232       .  S
H439        C444   1.081       .  S
O440       Mg448   2.113   1_554  S
O440        C443   1.241       .  S
H441        C443   1.081       .  S
H442        C445   1.081       .  S
O447       Mg454   2.316   1_554  S
C450        O455   1.274       .  A
C450       C1796   1.475       .  S
O451        C452   1.271   1_554  A
C452       C1836   1.477       .  S
C457       C1776   1.470       .  S
C457        C458   1.388       .  A
C457        C462   1.402       .  A
C458        H463   1.087   1_545  S
C458        C459   1.390       .  A
C459       C2299   1.476   1_545  S
C459        C460   1.404       .  A
C460        H464   1.082       .  S
C460        C461   1.420       .  A
C461        C468   1.497       .  S
C461        C462   1.419       .  A
C462        H465   1.082       .  S
C466        C477   1.497       .  S
C466        C467   1.408       .  A
C466        C471   1.408       .  A
C467        H472   1.082       .  S
C467        C468   1.409       .  A
C468        C469   1.409       .  A
C469        H473   1.081       .  S
C469        C470   1.408       .  A
C470        C488   1.497       .  S
C470        C471   1.409       .  A
C471        H474   1.082       .  S
C475       C1756   1.471       .  S
C475        C476   1.402       .  A
C475        C480   1.388       .  A
C476        H481   1.083       .  S
C476        C477   1.419       .  A
C477        C478   1.419       .  A
C478        H482   1.083       .  S
C478        C479   1.403       .  A
C479       C1769   1.471       .  S
C479        C480   1.389       .  A
C480        H483   1.087       .  S
C484       C2209   1.472       .  S
C484        C485   1.388       .  A
C484        C489   1.404       .  A
C485        H490   1.087       .  S
C485        C486   1.387       .  A
C486       C1879   1.469       .  S
C486        C487   1.401       .  A
C487        H491   1.082       .  S
C487        C488   1.419       .  A
C488        C489   1.421       .  A
C489        H492   1.082       .  S
C493       C1736   1.478   1_565  S
C493        C494   1.406       .  A
C493        C498   1.390       .  A
C494        H499   1.082       .  S
C494        C495   1.422       .  A
C495        C504   1.499       .  S
C495        C496   1.419       .  A
C496        H500   1.082       .  S
C496        C497   1.400       .  A
C497       C1746   1.469       .  S
C497        C498   1.387       .  A
C498        H501   1.087   1_565  S
C502        C515   1.496       .  S
C502        C503   1.409       .  A
C502        C507   1.408       .  A
C503        H508   1.081       .  S
C503        C504   1.408       .  A
C504        C505   1.410       .  A
C505        H509   1.081       .  S
C505        C506   1.409       .  A
C506        C524   1.499       .  S
C506        C507   1.408       .  A
C507        H510   1.081       .  S
C511       C1726   1.469       .  S
C511        C512   1.387       .  A
C511        C516   1.402       .  A
C512        H517   1.087       .  S
C512        C513   1.388       .  A
C513       C2149   1.471       .  S
C513        C514   1.403       .  A
C514        H518   1.082       .  S
C514        C515   1.420       .  A
C515        C516   1.419       .  A
C516        H519   1.082       .  S
C520       C1716   1.470       .  S
C520        C521   1.387       .  A
C520        C525   1.402       .  A
C521        H526   1.087       .  S
C521        C522   1.387       .  A
C522       C1869   1.472       .  S
C522        C523   1.403       .  A
C523        H527   1.082       .  S
C523        C524   1.421       .  A
C524        C525   1.420       .  A
C525        H528   1.082       .  S
O529       Mg531   2.119   1_554  S
O529       Mg537   2.118       .  S
O529        C564   1.241       .  S
C530        O543   1.241       .  S
C530        O567   1.275       .  A
C530        H569   1.081       .  S
Mg531       O560   2.115       .  S
Mg531       O575   2.317       .  S
Mg531       O571   2.237       .  S
Mg531       O542   2.308   1_545  S
O532       Mg574   2.113       .  S
O532       Mg557   2.118   1_565  S
O532        C553   1.241       .  S
O533        C564   1.275       .  A
O533       Mg557   2.312       .  S
C534        O536   1.271       .  A
C534        O548   1.274       .  A
C534       C1729   1.473       .  S
O535        C563   1.274       .  A
O535       Mg537   2.309   1_556  S
O536       Mg568   2.239       .  S
Mg537       O543   2.118       .  S
Mg537       O551   2.237       .  S
Mg537       O539   2.323       .  S
C538        O576   1.270   1_554  A
C538        O544   1.274       .  A
C538       C1709   1.476       .  S
O539        C546   1.274       .  A
H540        C553   1.081       .  S
C541        O555   1.241       .  S
C541        O556   1.275       .  A
C541        H566   1.081       .  S
O542        C565   1.274       .  A
O543       Mg557   2.113       .  S
O544       Mg574   2.321       .  S
C545        O558   1.270   1_545  A
C545        O550   1.275       .  A
C545       C1689   1.481       .  S
C546        O573   1.271       .  A
C546       C1766   1.478       .  S
Mg547       O554   2.114       .  S
Mg547       O555   2.116       .  S
Mg547       O548   2.316       .  S
Mg547       O549   2.311   1_556  S
Mg547       O576   2.234       .  S
O549        C553   1.275       .  A
O550       Mg557   2.330       .  S
O551        C570   1.271   1_554  A
O552        C572   1.275       .  A
O552       Mg568   2.326       .  S
O554       Mg568   2.117       .  S
O554        C565   1.241       .  S
O555       Mg574   2.118   1_556  S
O556       Mg568   2.309       .  S
Mg557       O573   2.240       .  S
O558       Mg574   2.238       .  S
H559        C564   1.081       .  S
O560       Mg568   2.117   1_545  S
O560        C563   1.241       .  S
H561        C563   1.081       .  S
H562        C565   1.081       .  S
O567       Mg574   2.311   1_545  S
C570        O575   1.274       .  A
C570       C1699   1.475       .  S
O571        C572   1.270   1_545  A
C572       C1679   1.479       .  S
C577       C1666   1.470   1_556  S
C577        C578   1.388       .  A
C577        C582   1.402       .  A
C578        H583   1.087   1_556  S
C578        C579   1.388       .  A
C579       C1696   1.469       .  S
C579        C580   1.402       .  A
C580        H584   1.083       .  S
C580        C581   1.419       .  A
C581        C586   1.494       .  S
C581        C582   1.418       .  A
C582        H585   1.083       .  S
C586        C587   1.408       .  A
C586        C591   1.407       .  A
C587        H592   1.082       .  S
C587        C588   1.408       .  A
C588        C606   1.495       .  S
C588        C589   1.409       .  A
C589        H593   1.082       .  S
C589        C590   1.408       .  A
C590        C599   1.494       .  S
C590        C591   1.407       .  A
C591        H594   1.082       .  S
C595       C1656   1.474       .  S
C595        C596   1.389       .  A
C595        C600   1.403       .  A
C596        H601   1.086       .  S
C596        C597   1.389       .  A
C597       C1849   1.471       .  S
C597        C598   1.403       .  A
C598        H602   1.083       .  S
C598        C599   1.417       .  A
C599        C600   1.419       .  A
C600        H603   1.083       .  S
C604       C2139   1.471       .  S
C604        C605   1.403       .  A
C604        C609   1.389       .  A
C605        H610   1.083       .  S
C605        C606   1.418       .  A
C606        C607   1.419       .  A
C607        H611   1.083       .  S
C607        C608   1.403       .  A
C608       C1646   1.472       .  S
C608        C609   1.388       .  A
C609        H612   1.087       .  S
C613       C1706   1.468       .  S
C613        C614   1.400       .  A
C613        C618   1.387       .  A
C614        H619   1.082       .  S
C614        C615   1.418       .  A
C615        C635   1.496       .  S
C615        C616   1.420       .  A
C616        H620   1.082       .  S
C616        C617   1.403       .  A
C617       C1636   1.471   1_554  S
C617        C618   1.388       .  A
C618        H621   1.087   1_554  S
C622       C2269   1.473       .  S
C622        C623   1.388       .  A
C622        C627   1.403       .  A
C623        H628   1.087       .  S
C623        C624   1.389       .  A
C624       C1899   1.472       .  S
C624        C625   1.403       .  A
C625        H629   1.082       .  S
C625        C626   1.420       .  A
C626        C633   1.499       .  S
C626        C627   1.420       .  A
C627        H630   1.082       .  S
C631        C642   1.494       .  S
C631        C632   1.409       .  A
C631        C636   1.407       .  A
C632        H637   1.082       .  S
C632        C633   1.409       .  A
C633        C634   1.408       .  A
C634        H638   1.081       .  S
C634        C635   1.408       .  A
C635        C636   1.407       .  A
C636        H639   1.082       .  S
C640       C1616   1.470       .  S
C640        C641   1.402       .  A
C640        C645   1.388       .  A
C641        H646   1.083       .  S
C641        C642   1.417       .  A
C642        C643   1.419       .  A
C643        H647   1.083       .  S
C643        C644   1.403       .  A
C644       C1626   1.472       .  S
C644        C645   1.389       .  A
C645        H648   1.087       .  S
O649       Mg651   2.121   1_455  S
O649       Mg657   2.117       .  S
O649        C684   1.241       .  S
C650        O663   1.241       .  S
C650        O687   1.275       .  A
C650        H689   1.081       .  S
Mg651       O680   2.119       .  S
Mg651       O695   2.321       .  S
Mg651       O691   2.239       .  S
Mg651       O662   2.304   1_554  S
O652       Mg694   2.118       .  S
O652       Mg677   2.118   1_556  S
O652        C673   1.241       .  S
O653        C684   1.275       .  A
O653       Mg677   2.312       .  S
C654        O656   1.271       .  A
C654        O668   1.275       .  A
C654       C1649   1.471       .  S
O655        C683   1.275       .  A
O655       Mg657   2.309   1_655  S
O656       Mg688   2.241       .  S
Mg657       O663   2.122       .  S
Mg657       O671   2.238       .  S
Mg657       O659   2.330       .  S
C658        O696   1.271   1_455  A
C658        O664   1.275       .  A
C658       C1599   1.474       .  S
O659        C666   1.275       .  A
H660        C673   1.081       .  S
C661        O675   1.241       .  S
C661        O676   1.274       .  A
C661        H686   1.081       .  S
O662        C685   1.274       .  A
O663       Mg677   2.114       .  S
O664       Mg694   2.320       .  S
C665        O678   1.271   1_554  A
C665        O670   1.274       .  A
C665       C1609   1.476       .  S
C666        O693   1.270       .  A
C666       C1629   1.478       .  S
Mg667       O674   2.114       .  S
Mg667       O675   2.121       .  S
Mg667       O668   2.321       .  S
Mg667       O669   2.307   1_655  S
Mg667       O696   2.238       .  S
O669        C673   1.274       .  A
O670       Mg677   2.322       .  S
O671        C690   1.271   1_455  A
O672        C692   1.275       .  A
O672       Mg688   2.322       .  S
O674       Mg688   2.122       .  S
O674        C685   1.241       .  S
O675       Mg694   2.116   1_655  S
O676       Mg688   2.303       .  S
Mg677       O693   2.235       .  S
O678       Mg694   2.239       .  S
H679        C684   1.081       .  S
O680       Mg688   2.118   1_554  S
O680        C683   1.241       .  S
H681        C683   1.081       .  S
H682        C685   1.081       .  S
O687       Mg694   2.311   1_554  S
C690        O695   1.274       .  A
C690       C1589   1.475       .  S
O691        C692   1.271   1_554  A
C692       C1579   1.475       .  S
C697        C708   1.502       .  S
C697        C698   1.412       .  A
C697        C702   1.410       .  A
C698        H703   1.082       .  S
C698        C699   1.409       .  A
C699        C719   1.496       .  S
C699        C700   1.408       .  A
C700        H704   1.082       .  S
C700        C701   1.408       .  A
C701        C728   1.497       .  S
C701        C702   1.409       .  A
C702        H705   1.081       .  S
C706       C1829   1.471       .  S
C706        C707   1.403       .  A
C706        C711   1.388       .  A
C707        H712   1.082       .  S
C707        C708   1.420       .  A
C708        C709   1.422       .  A
C709        H713   1.082       .  S
C709        C710   1.405       .  A
C710       C1566   1.477   1_655  S
C710        C711   1.388       .  A
C711        H714   1.087   1_655  S
C715       C2159   1.475   1_545  S
C715        C716   1.389       .  A
C715        C720   1.405       .  A
C716        H721   1.086   1_545  S
C716        C717   1.389       .  A
C717       C1969   1.474       .  S
C717        C718   1.404       .  A
C718        H722   1.083       .  S
C718        C719   1.419       .  A
C719        C720   1.419       .  A
C720        H723   1.083       .  S
C724       C1556   1.471       .  S
C724        C725   1.388       .  A
C724        C729   1.402       .  A
C725        H730   1.087       .  S
C725        C726   1.389       .  A
C726       C2059   1.476       .  S
C726        C727   1.405       .  A
C727        H731   1.083       .  S
C727        C728   1.420       .  A
C728        C729   1.419       .  A
C729        H732   1.083       .  S
C733       C1549   1.472   1_455  S
C733        C734   1.404       .  A
C733        C738   1.388       .  A
C734        H739   1.083       .  S
C734        C735   1.420       .  A
C735        C753   1.498       .  S
C735        C736   1.419       .  A
C736        H740   1.083       .  S
C736        C737   1.403       .  A
C737       C1536   1.471       .  S
C737        C738   1.388       .  A
C738        H741   1.087   1_455  S
C742       C1606   1.471       .  S
C742        C743   1.403       .  A
C742        C747   1.390       .  A
C743        H748   1.083       .  S
C743        C744   1.418       .  A
C744        C755   1.496       .  S
C744        C745   1.419       .  A
C745        H749   1.083       .  S
C745        C746   1.403       .  A
C746       C1526   1.472   1_554  S
C746        C747   1.388       .  A
C747        H750   1.086   1_554  S
C751        C762   1.501       .  S
C751        C752   1.410       .  A
C751        C756   1.409       .  A
C752        H757   1.081       .  S
C752        C753   1.409       .  A
C753        C754   1.408       .  A
C754        H758   1.082       .  S
C754        C755   1.408       .  A
C755        C756   1.408       .  A
C756        H759   1.081       .  S
C760       C1686   1.472       .  S
C760        C761   1.403       .  A
C760        C765   1.387       .  A
C761        H766   1.082       .  S
C761        C762   1.422       .  A
C762        C763   1.421       .  A
C763        H767   1.082       .  S
C763        C764   1.403       .  A
C764       C1519   1.471   1_545  S
C764        C765   1.387       .  A
C765        H768   1.087   1_545  S
O769       Mg771   2.115       .  S
O769       Mg777   2.131       .  S
O769        C804   1.241       .  S
C770        O783   1.241       .  S
C770        O807   1.274       .  A
C770        H809   1.081       .  S
Mg771       O800   2.124       .  S
Mg771       O815   2.298       .  S
Mg771       O811   2.270       .  S
Mg771       O782   2.310       .  S
O772       Mg814   2.129       .  S
O772       Mg797   2.116       .  S
O772        C793   1.241       .  S
O773        C804   1.274       .  A
O773       Mg797   2.307       .  S
C774        O776   1.271       .  A
C774        O788   1.275       .  A
C774       C1509   1.480       .  S
O775        C803   1.275       .  A
O775       Mg777   2.308       .  S
O776       Mg808   2.268       .  S
Mg777       O783   2.114       .  S
Mg777       O791   2.275       .  S
Mg777       O779   2.305       .  S
C778        O816   1.271       .  A
C778        O784   1.276       .  A
C778       C1659   1.478       .  S
O779        C786   1.276       .  A
H780        C793   1.081       .  S
C781        O795   1.241       .  S
C781        O796   1.275       .  A
C781        H806   1.081       .  S
O782        C805   1.275       .  A
O783       Mg797   2.129       .  S
O784       Mg814   2.302       .  S
C785        O798   1.272       .  A
C785        O790   1.276       .  A
C785       C2089   1.481       .  S
C786        O813   1.272       .  A
C786       C1739   1.484       .  S
Mg787       O794   2.117       .  S
Mg787       O795   2.129       .  S
Mg787       O788   2.300       .  S
Mg787       O789   2.308       .  S
Mg787       O816   2.269       .  S
O789        C793   1.274       .  A
O790       Mg797   2.305       .  S
O791        C810   1.272       .  A
O792        C812   1.275       .  A
O792       Mg808   2.310       .  S
O794       Mg808   2.127       .  S
O794        C805   1.241       .  S
O795       Mg814   2.118       .  S
O796       Mg808   2.311       .  S
Mg797       O813   2.272       .  S
O798       Mg814   2.274       .  S
H799        C804   1.081       .  S
O800       Mg808   2.116       .  S
O800        C803   1.241       .  S
H801        C803   1.081       .  S
H802        C805   1.081       .  S
O807       Mg814   2.305       .  S
C810        O815   1.275       .  A
C810       C1569   1.484       .  S
O811        C812   1.271       .  A
C812       C1529   1.475       .  S
O817       Mg819   2.118       .  S
O817       Mg825   2.119       .  S
O817        C852   1.241       .  S
C818        O831   1.241       .  S
C818        O855   1.274       .  A
C818        H857   1.081       .  S
Mg819       O848   2.116       .  S
Mg819       O863   2.320       .  S
Mg819       O859   2.240       .  S
Mg819       O830   2.309       .  S
O820       Mg862   2.117       .  S
O820       Mg845   2.117       .  S
O820        C841   1.241       .  S
O821        C852   1.274       .  A
O821       Mg845   2.307       .  S
C822        O824   1.270       .  A
C822        O836   1.275       .  A
C822       C1496   1.477       .  S
O823        C851   1.274       .  A
O823       Mg825   2.308       .  S
O824       Mg856   2.236       .  S
Mg825       O831   2.117       .  S
Mg825       O839   2.238       .  S
Mg825       O827   2.318       .  S
C826        O864   1.271       .  A
C826        O832   1.275       .  A
C826       C1559   1.477       .  S
O827        C834   1.274       .  A
H828        C841   1.081       .  S
C829        O843   1.241       .  S
C829        O844   1.275       .  A
C829        H854   1.081       .  S
O830        C853   1.275       .  A
O831       Mg845   2.120       .  S
O832       Mg862   2.325       .  S
C833        O846   1.271       .  A
C833        O838   1.275       .  A
C833       C1546   1.478       .  S
C834        O861   1.271       .  A
C834       C1489   1.473       .  S
Mg835       O842   2.120       .  S
Mg835       O843   2.116       .  S
Mg835       O836   2.325       .  S
Mg835       O837   2.309       .  S
Mg835       O864   2.240       .  S
O837        C841   1.275       .  A
O838       Mg845   2.327       .  S
O839        C858   1.271       .  A
O840        C860   1.275       .  A
O840       Mg856   2.327       .  S
O842       Mg856   2.115       .  S
O842        C853   1.241       .  S
O843       Mg862   2.120       .  S
O844       Mg856   2.312       .  S
Mg845       O861   2.239       .  S
O846       Mg862   2.242       .  S
H847        C852   1.081       .  S
O848       Mg856   2.115       .  S
O848        C851   1.241       .  S
H849        C851   1.081       .  S
H850        C853   1.081       .  S
O855       Mg862   2.307       .  S
C858        O863   1.274       .  A
C858       C1669   1.475       .  S
O859        C860   1.271       .  A
C860       C2109   1.479       .  S
C865       C1476   1.471   1_556  S
C865        C866   1.387       .  A
C865        C870   1.404       .  A
C866        H871   1.087   1_556  S
C866        C867   1.387       .  A
C867       C1839   1.470       .  S
C867        C868   1.402       .  A
C868        H872   1.082       .  S
C868        C869   1.420       .  A
C869        C874   1.499       .  S
C869        C870   1.421       .  A
C870        H873   1.082       .  S
C874        C875   1.408       .  A
C874        C879   1.408       .  A
C875        H880   1.081       .  S
C875        C876   1.410       .  A
C876        C887   1.501       .  S
C876        C877   1.409       .  A
C877        H881   1.081       .  S
C877        C878   1.410       .  A
C878        C896   1.498       .  S
C878        C879   1.409       .  A
C879        H882   1.081       .  S
C883       C2029   1.480       .  S
C883        C884   1.389       .  A
C883        C888   1.406       .  A
C884        H889   1.087   1_455  S
C884        C885   1.387       .  A
C885       C2179   1.471   1_455  S
C885        C886   1.400       .  A
C886        H890   1.082       .  S
C886        C887   1.420       .  A
C887        C888   1.423       .  A
C888        H891   1.082       .  S
C892       C1506   1.474       .  S
C892        C893   1.389       .  A
C892        C897   1.404       .  A
C893        H898   1.087       .  S
C893        C894   1.388       .  A
C894       C1939   1.471       .  S
C894        C895   1.402       .  A
C895        H899   1.082       .  S
C895        C896   1.419       .  A
C896        C897   1.420       .  A
C897        H900   1.083       .  S
O901       Mg903   2.118       .  S
O901       Mg909   2.117       .  S
O901        C936   1.241       .  S
C902        O915   1.241       .  S
C902        O939   1.275       .  A
C902        H941   1.081       .  S
Mg903       O932   2.114       .  S
Mg903       O947   2.315       .  S
Mg903       O943   2.236       .  S
Mg903       O914   2.309       .  S
O904       Mg946   2.113       .  S
O904       Mg929   2.117       .  S
O904        C925   1.241       .  S
O905        C936   1.275       .  A
O905       Mg929   2.310       .  S
C906        O908   1.270       .  A
C906        O920   1.275       .  A
C906       C1719   1.478       .  S
O907        C935   1.275       .  A
O907       Mg909   2.310       .  S
O908       Mg940   2.236       .  S
Mg909       O915   2.115       .  S
Mg909       O923   2.235       .  S
Mg909       O911   2.321       .  S
C910        O948   1.270       .  A
C910        O916   1.274       .  A
C910       C1466   1.478       .  S
O911        C918   1.274       .  A
H912        C925   1.081       .  S
C913        O927   1.241       .  S
C913        O928   1.275       .  A
C913        H938   1.081       .  S
O914        C937   1.274       .  A
O915       Mg929   2.115       .  S
O916       Mg946   2.322       .  S
C917        O930   1.270       .  A
C917        O922   1.275       .  A
C917       C1516   1.480       .  S
C918        O945   1.271       .  A
C918       C1479   1.477       .  S
Mg919       O926   2.116       .  S
Mg919       O927   2.113       .  S
Mg919       O920   2.324       .  S
Mg919       O921   2.312       .  S
Mg919       O948   2.236       .  S
O921        C925   1.275       .  A
O922       Mg929   2.327       .  S
O923        C942   1.270       .  A
O924        C944   1.275       .  A
O924       Mg940   2.324       .  S
O926       Mg940   2.113       .  S
O926        C937   1.241       .  S
O927       Mg946   2.118       .  S
O928       Mg940   2.311       .  S
Mg929       O945   2.241       .  S
O930       Mg946   2.238       .  S
H931        C936   1.081       .  S
O932       Mg940   2.117       .  S
O932        C935   1.241       .  S
H933        C935   1.081       .  S
H934        C937   1.081       .  S
O939       Mg946   2.310       .  S
C942        O947   1.273       .  A
C942       C1456   1.474       .  S
O943        C944   1.270       .  A
C944       C2076   1.480       .  S
C949       C1486   1.470   1_565  S
C949        C950   1.387       .  A
C949        C954   1.402       .  A
C950        H955   1.087   1_565  S
C950        C951   1.388       .  A
C951       C1819   1.471       .  S
C951        C952   1.403       .  A
C952        H956   1.082       .  S
C952        C953   1.420       .  A
C953        C958   1.496       .  S
C953        C954   1.419       .  A
C954        H957   1.083       .  S
C958        C959   1.408       .  A
C958        C963   1.409       .  A
C959        H964   1.082       .  S
C959        C960   1.408       .  A
C960        C971   1.498       .  S
C960        C961   1.408       .  A
C961        H965   1.081       .  S
C961        C962   1.410       .  A
C962        C980   1.500       .  S
C962        C963   1.409       .  A
C963        H966   1.081       .  S
C967       C2169   1.470   1_554  S
C967        C968   1.388       .  A
C967        C972   1.402       .  A
C968        H973   1.087   1_554  S
C968        C969   1.388       .  A
C969       C1909   1.471       .  S
C969        C970   1.403       .  A
C970        H974   1.082       .  S
C970        C971   1.420       .  A
C971        C972   1.419       .  A
C972        H975   1.082       .  S
C976       C1469   1.470       .  S
C976        C977   1.387       .  A
C976        C981   1.400       .  A
C977        H982   1.087       .  S
C977        C978   1.390       .  A
C978       C1989   1.479       .  S
C978        C979   1.406       .  A
C979        H983   1.082       .  S
C979        C980   1.422       .  A
C980        C981   1.420       .  A
C981        H984   1.082       .  S
C985       C1005   1.495       .  S
C985        C986   1.408       .  A
C985        C990   1.407       .  A
C986        H991   1.081       .  S
C986        C987   1.408       .  A
C987       C1016   1.496       .  S
C987        C988   1.407       .  A
C988        H992   1.081       .  S
C988        C989   1.407       .  A
C989        C998   1.494       .  S
C989        C990   1.408       .  A
C990        H993   1.082       .  S
C994       C1459   1.468   1_655  S
C994        C995   1.388       .  A
C994        C999   1.401       .  A
C995       H1000   1.087   1_655  S
C995        C996   1.388       .  A
C996       C1586   1.469       .  S
C996        C997   1.402       .  A
C997       H1001   1.083       .  S
C997        C998   1.419       .  A
C998        C999   1.418       .  A
C999       H1002   1.083       .  S
C1003      C2129   1.469       .  S
C1003      C1004   1.401       .  A
C1003      C1008   1.388       .  A
C1004      H1009   1.082       .  S
C1004      C1005   1.418       .  A
C1005      C1006   1.419       .  A
C1006      H1010   1.083       .  S
C1006      C1007   1.403       .  A
C1007      C1446   1.471       .  S
C1007      C1008   1.388       .  A
C1008      H1011   1.087       .  S
C1012      C1499   1.470       .  S
C1012      C1013   1.387       .  A
C1012      C1017   1.402       .  A
C1013      H1018   1.087       .  S
C1013      C1014   1.388       .  A
C1014      C1859   1.469       .  S
C1014      C1015   1.401       .  A
C1015      H1019   1.082       .  S
C1015      C1016   1.419       .  A
C1016      C1017   1.420       .  A
C1017      H1020   1.082       .  S
C1021      C1799   1.469       .  S
C1021      C1022   1.389       .  A
C1021      C1026   1.403       .  A
C1022      H1027   1.087   1_455  S
C1022      C1023   1.388       .  A
C1023      C2289   1.472   1_455  S
C1023      C1024   1.403       .  A
C1024      H1028   1.083       .  S
C1024      C1025   1.419       .  A
C1025      C1030   1.495       .  S
C1025      C1026   1.417       .  A
C1026      H1029   1.083       .  S
C1030      C1031   1.407       .  A
C1030      C1035   1.409       .  A
C1031      H1036   1.082       .  S
C1031      C1032   1.407       .  A
C1032      C1052   1.496       .  S
C1032      C1033   1.410       .  A
C1033      H1037   1.082       .  S
C1033      C1034   1.410       .  A
C1034      C1041   1.499       .  S
C1034      C1035   1.410       .  A
C1035      H1038   1.082       .  S
C1039      C2009   1.474       .  S
C1039      C1040   1.404       .  A
C1039      C1044   1.389       .  A
C1040      H1045   1.083       .  S
C1040      C1041   1.419       .  A
C1041      C1042   1.420       .  A
C1042      H1046   1.083       .  S
C1042      C1043   1.404       .  A
C1043      C1436   1.473   1_565  S
C1043      C1044   1.389       .  A
C1044      H1047   1.086   1_565  S
C1048      C1426   1.469       .  S
C1048      C1049   1.389       .  A
C1048      C1053   1.402       .  A
C1049      H1054   1.087       .  S
C1049      C1050   1.389       .  A
C1050      C2019   1.475       .  S
C1050      C1051   1.405       .  A
C1051      H1055   1.083       .  S
C1051      C1052   1.420       .  A
C1052      C1053   1.417       .  A
C1053      H1056   1.083       .  S
C1057      C1789   1.470       .  S
C1057      C1058   1.401       .  A
C1057      C1062   1.386       .  A
C1058      H1063   1.082       .  S
C1058      C1059   1.421       .  A
C1059      C1068   1.499       .  S
C1059      C1060   1.421       .  A
C1060      H1064   1.082       .  S
C1060      C1061   1.403       .  A
C1061      C1419   1.473   1_545  S
C1061      C1062   1.388       .  A
C1062      H1065   1.087   1_545  S
C1066      C1088   1.495       .  S
C1066      C1067   1.408       .  A
C1066      C1071   1.408       .  A
C1067      H1072   1.082       .  S
C1067      C1068   1.409       .  A
C1068      C1069   1.409       .  A
C1069      H1073   1.081       .  S
C1069      C1070   1.408       .  A
C1070      C1077   1.496       .  S
C1070      C1071   1.408       .  A
C1071      H1074   1.082       .  S
C1075      C1929   1.470       .  S
C1075      C1076   1.403       .  A
C1075      C1080   1.388       .  A
C1076      H1081   1.083       .  S
C1076      C1077   1.419       .  A
C1077      C1078   1.419       .  A
C1078      H1082   1.083       .  S
C1078      C1079   1.402       .  A
C1079      C1406   1.471   1_556  S
C1079      C1080   1.388       .  A
C1080      H1083   1.087   1_556  S
C1084      C2196   1.471       .  S
C1084      C1085   1.390       .  A
C1084      C1089   1.404       .  A
C1085      H1090   1.086       .  S
C1085      C1086   1.389       .  A
C1086      C1979   1.470       .  S
C1086      C1087   1.402       .  A
C1087      H1091   1.083       .  S
C1087      C1088   1.417       .  A
C1088      C1089   1.418       .  A
C1089      H1092   1.083       .  S
O1093     Mg1095   2.119       .  S
O1093     Mg1101   2.113       .  S
O1093      C1128   1.241       .  S
C1094      O1107   1.241       .  S
C1094      O1131   1.275       .  A
C1094      H1133   1.081       .  S
Mg1095     O1124   2.117       .  S
Mg1095     O1139   2.324       .  S
Mg1095     O1135   2.238       .  S
Mg1095     O1106   2.307   1_565  S
O1096     Mg1138   2.119       .  S
O1096     Mg1121   2.116   1_545  S
O1096      C1117   1.241       .  S
O1097      C1128   1.275       .  A
O1097     Mg1121   2.313   1_655  S
C1098      O1100   1.272   1_455  A
C1098      O1112   1.274       .  A
C1098      C1539   1.474       .  S
O1099      C1127   1.275       .  A
O1099     Mg1101   2.312       .  S
O1100     Mg1132   2.243       .  S
Mg1101     O1107   2.121   1_655  S
Mg1101     O1115   2.239       .  S
Mg1101     O1103   2.336       .  S
C1102      O1140   1.271       .  A
C1102      O1108   1.275       .  A
C1102      C1399   1.475       .  S
O1103      C1110   1.276       .  A
H1104      C1117   1.081       .  S
C1105      O1119   1.241       .  S
C1105      O1120   1.274       .  A
C1105      H1130   1.081       .  S
O1106      C1129   1.274       .  A
O1107     Mg1121   2.111       .  S
O1108     Mg1138   2.322       .  S
C1109      O1122   1.270   1_565  A
C1109      O1114   1.274       .  A
C1109      C1749   1.474       .  S
C1110      O1137   1.269   1_655  A
C1110      C1386   1.484       .  S
Mg1111     O1118   2.115   1_455  S
Mg1111     O1119   2.117       .  S
Mg1111     O1112   2.318       .  S
Mg1111     O1113   2.308       .  S
Mg1111     O1140   2.237       .  S
O1113      C1117   1.274       .  A
O1114     Mg1121   2.315       .  S
O1115      C1134   1.271       .  A
O1116      C1136   1.275       .  A
O1116     Mg1132   2.323       .  S
O1118     Mg1132   2.121       .  S
O1118      C1129   1.241       .  S
O1119     Mg1138   2.115       .  S
O1120     Mg1132   2.304   1_455  S
Mg1121     O1137   2.235       .  S
O1122     Mg1138   2.237       .  S
H1123      C1128   1.081       .  S
O1124     Mg1132   2.120   1_565  S
O1124      C1127   1.241       .  S
H1125      C1127   1.081       .  S
H1126      C1129   1.081       .  S
O1131     Mg1138   2.310   1_565  S
C1134      O1139   1.275       .  A
C1134      C1449   1.476       .  S
O1135      C1136   1.271   1_565  A
C1136      C1779   1.477       .  S
C1141      C1596   1.470       .  S
C1141      C1142   1.387       .  A
C1141      C1146   1.402       .  A
C1142      H1147   1.087   1_455  S
C1142      C1143   1.389       .  A
C1143      C2239   1.473   1_455  S
C1143      C1144   1.404       .  A
C1144      H1148   1.082       .  S
C1144      C1145   1.420       .  A
C1145      C1150   1.498       .  S
C1145      C1146   1.419       .  A
C1146      H1149   1.082       .  S
C1150      C1151   1.409       .  A
C1150      C1155   1.408       .  A
C1151      H1156   1.082       .  S
C1151      C1152   1.408       .  A
C1152      C1170   1.496       .  S
C1152      C1153   1.408       .  A
C1153      H1157   1.082       .  S
C1153      C1154   1.408       .  A
C1154      C1161   1.495       .  S
C1154      C1155   1.409       .  A
C1155      H1158   1.082       .  S
C1159      C1396   1.470       .  S
C1159      C1160   1.402       .  A
C1159      C1164   1.389       .  A
C1160      H1165   1.083       .  S
C1160      C1161   1.418       .  A
C1161      C1162   1.419       .  A
C1162      H1166   1.083       .  S
C1162      C1163   1.403       .  A
C1163      C1379   1.471       .  S
C1163      C1164   1.388       .  A
C1164      H1167   1.087       .  S
C1168      C1886   1.471       .  S
C1168      C1169   1.403       .  A
C1168      C1173   1.388       .  A
C1169      H1174   1.082       .  S
C1169      C1170   1.420       .  A
C1170      C1171   1.419       .  A
C1171      H1175   1.083       .  S
C1171      C1172   1.402       .  A
C1172      C1366   1.469       .  S
C1172      C1173   1.387       .  A
C1173      H1176   1.087       .  S
O1177     Mg1179   2.116       .  S
O1177     Mg1185   2.119       .  S
O1177      C1212   1.241       .  S
C1178      O1191   1.241       .  S
C1178      O1215   1.274       .  A
C1178      H1217   1.081       .  S
Mg1179     O1208   2.120       .  S
Mg1179     O1223   2.326       .  S
Mg1179     O1219   2.238       .  S
Mg1179     O1190   2.309       .  S
O1180     Mg1222   2.121       .  S
O1180     Mg1205   2.115       .  S
O1180      C1201   1.241       .  S
O1181      C1212   1.274       .  A
O1181     Mg1205   2.304       .  S
C1182      O1184   1.271       .  A
C1182      O1196   1.276       .  A
C1182      C1439   1.478       .  S
O1183      C1211   1.274       .  A
O1183     Mg1185   2.307       .  S
O1184     Mg1216   2.239       .  S
Mg1185     O1191   2.116       .  S
Mg1185     O1199   2.238       .  S
Mg1185     O1187   2.318       .  S
C1186      O1224   1.272       .  A
C1186      O1192   1.276       .  A
C1186      C1376   1.475       .  S
O1187      C1194   1.274       .  A
H1188      C1201   1.081       .  S
C1189      O1203   1.241       .  S
C1189      O1204   1.274       .  A
C1189      H1214   1.081       .  S
O1190      C1213   1.275       .  A
O1191     Mg1205   2.123       .  S
O1192     Mg1222   2.327       .  S
C1193      O1206   1.273       .  A
C1193      O1198   1.274       .  A
C1193      C1359   1.477       .  S
C1194      O1221   1.270       .  A
C1194      C1619   1.471       .  S
Mg1195     O1202   2.122       .  S
Mg1195     O1203   2.119       .  S
Mg1195     O1196   2.332       .  S
Mg1195     O1197   2.307       .  S
Mg1195     O1224   2.241       .  S
O1197      C1201   1.274       .  A
O1198     Mg1205   2.315       .  S
O1199      C1218   1.271       .  A
O1200      C1220   1.275       .  A
O1200     Mg1216   2.324       .  S
O1202     Mg1216   2.119       .  S
O1202      C1213   1.241       .  S
O1203     Mg1222   2.123       .  S
O1204     Mg1216   2.309       .  S
Mg1205     O1221   2.236       .  S
O1206     Mg1222   2.251       .  S
H1207      C1212   1.081       .  S
O1208     Mg1216   2.117       .  S
O1208      C1211   1.241       .  S
H1209      C1211   1.081       .  S
H1210      C1213   1.081       .  S
O1215     Mg1222   2.305       .  S
C1218      O1223   1.275       .  A
C1218      C1409   1.476       .  S
O1219      C1220   1.271       .  A
C1220      C1759   1.472       .  S
C1225      C1256   1.501       .  S
C1225      C1226   1.408       .  A
C1225      C1230   1.409       .  A
C1226      H1231   1.081       .  S
C1226      C1227   1.410       .  A
C1227      C1236   1.501       .  S
C1227      C1228   1.411       .  A
C1228      H1232   1.082       .  S
C1228      C1229   1.412       .  A
C1229      C1247   1.496       .  S
C1229      C1230   1.409       .  A
C1230      H1233   1.082       .  S
C1234      C2229   1.471   1_554  S
C1234      C1235   1.400       .  A
C1234      C1239   1.386       .  A
C1235      H1240   1.083       .  S
C1235      C1236   1.420       .  A
C1236      C1237   1.423       .  A
C1237      H1241   1.082       .  S
C1237      C1238   1.409       .  A
C1238      C1809   1.480       .  S
C1238      C1239   1.390       .  A
C1239      H1242   1.087   1_554  S
C1243      C1356   1.472   1_655  S
C1243      C1244   1.390       .  A
C1243      C1248   1.405       .  A
C1244      H1249   1.086   1_655  S
C1244      C1245   1.391       .  A
C1245      C2049   1.482       .  S
C1245      C1246   1.407       .  A
C1246      H1250   1.083       .  S
C1246      C1247   1.419       .  A
C1247      C1248   1.418       .  A
C1248      H1251   1.083       .  S
C1252      C2249   1.477       .  S
C1252      C1253   1.389       .  A
C1252      C1257   1.405       .  A
C1253      H1258   1.087       .  S
C1253      C1254   1.387       .  A
C1254      C1916   1.472       .  S
C1254      C1255   1.402       .  A
C1255      H1259   1.082       .  S
C1255      C1256   1.421       .  A
C1256      C1257   1.421       .  A
C1257      H1260   1.082       .  S
C1261      C1283   1.497       .  S
C1261      C1262   1.409       .  A
C1261      C1266   1.409       .  A
C1262      H1267   1.082       .  S
C1262      C1263   1.407       .  A
C1263      C1292   1.498       .  S
C1263      C1264   1.408       .  A
C1264      H1268   1.081       .  S
C1264      C1265   1.410       .  A
C1265      C1274   1.499       .  S
C1265      C1266   1.409       .  A
C1266      H1269   1.081       .  S
C1270      C1346   1.469   1_655  S
C1270      C1271   1.387       .  A
C1270      C1275   1.400       .  A
C1271      H1276   1.087   1_655  S
C1271      C1272   1.388       .  A
C1272      C1389   1.474       .  S
C1272      C1273   1.405       .  A
C1273      H1277   1.082       .  S
C1273      C1274   1.422       .  A
C1274      C1275   1.419       .  A
C1275      H1278   1.082       .  S
C1279      C1676   1.470       .  S
C1279      C1280   1.388       .  A
C1279      C1284   1.402       .  A
C1280      H1285   1.087   1_565  S
C1280      C1281   1.388       .  A
C1281      C2186   1.471   1_565  S
C1281      C1282   1.403       .  A
C1282      H1286   1.082       .  S
C1282      C1283   1.420       .  A
C1283      C1284   1.419       .  A
C1284      H1287   1.082       .  S
C1288      C1576   1.470       .  S
C1288      C1289   1.388       .  A
C1288      C1293   1.402       .  A
C1289      H1294   1.087   1_556  S
C1289      C1290   1.389       .  A
C1290      C2259   1.474   1_556  S
C1290      C1291   1.405       .  A
C1291      H1295   1.083       .  S
C1291      C1292   1.420       .  A
C1292      C1293   1.418       .  A
C1293      H1296   1.082       .  S
O1297     Mg1299   2.114       .  S
O1297     Mg1305   2.118       .  S
O1297      C1332   1.241       .  S
C1298      O1311   1.241       .  S
C1298      O1335   1.274       .  A
C1298      H1337   1.081       .  S
Mg1299     O1328   2.119       .  S
Mg1299     O1343   2.318       .  S
Mg1299     O1339   2.236       .  S
Mg1299     O1310   2.309       .  S
O1300     Mg1342   2.114       .  S
O1300     Mg1325   2.120       .  S
O1300      C1321   1.241       .  S
O1301      C1332   1.274       .  A
O1301     Mg1325   2.306       .  S
C1302      O1304   1.270       .  A
C1302      O1316   1.275       .  A
C1302      C1416   1.483       .  S
O1303      C1331   1.274       .  A
O1303     Mg1305   2.306       .  S
O1304     Mg1336   2.236       .  S
Mg1305     O1311   2.116       .  S
Mg1305     O1319   2.238       .  S
Mg1305     O1307   2.315       .  S
C1306      O1344   1.270       .  A
C1306      O1312   1.274       .  A
C1306      C1639   1.477       .  S
O1307      C1314   1.274       .  A
H1308      C1321   1.081       .  S
C1309      O1323   1.241       .  S
C1309      O1324   1.275       .  A
C1309      H1334   1.081       .  S
O1310      C1333   1.274       .  A
O1311     Mg1325   2.119       .  S
O1312     Mg1342   2.324       .  S
C1313      O1326   1.271       .  A
C1313      O1318   1.275       .  A
C1313      C1946   1.480       .  S
C1314      O1341   1.272       .  A
C1314      C1369   1.474       .  S
Mg1315     O1322   2.118       .  S
Mg1315     O1323   2.112       .  S
Mg1315     O1316   2.329       .  S
Mg1315     O1317   2.313       .  S
Mg1315     O1344   2.237       .  S
O1317      C1321   1.275       .  A
O1318     Mg1325   2.328       .  S
O1319      C1338   1.271       .  A
O1320      C1340   1.274       .  A
O1320     Mg1336   2.318       .  S
O1322     Mg1336   2.111       .  S
O1322      C1333   1.241       .  S
O1323     Mg1342   2.119       .  S
O1324     Mg1336   2.314       .  S
Mg1325     O1341   2.243       .  S
O1326     Mg1342   2.238       .  S
H1327      C1332   1.081       .  S
O1328     Mg1336   2.114       .  S
O1328      C1331   1.241       .  S
H1329      C1331   1.081       .  S
H1330      C1333   1.081       .  S
O1335     Mg1342   2.309       .  S
C1338      O1343   1.274       .  A
C1338      C1429   1.475       .  S
O1339      C1340   1.270       .  A
C1340      C1349   1.475       .  S
C1345      C1346   1.407       .  A
C1345      C1350   1.402       .  A
C1345      F1352   1.358       .  S
C1346      C1347   1.402       .  A
C1347      C1348   1.395       .  A
C1347      F1354   1.358       .  S
C1348      C1349   1.408       .  A
C1348      F1353   1.359       .  S
C1349      C1350   1.404       .  A
C1350      F1351   1.357       .  S
C1355      C1356   1.404       .  A
C1355      C1360   1.395       .  A
C1355      F1362   1.359       .  S
C1356      C1357   1.408       .  A
C1357      C1358   1.404       .  A
C1357      F1364   1.357       .  S
C1358      C1359   1.405       .  A
C1358      F1363   1.357       .  S
C1359      C1360   1.407       .  A
C1360      F1361   1.359       .  S
C1365      C1366   1.402       .  A
C1365      C1370   1.394       .  A
C1365      F1372   1.359       .  S
C1366      C1367   1.408       .  A
C1367      C1368   1.403       .  A
C1367      F1374   1.358       .  S
C1368      C1369   1.404       .  A
C1368      F1373   1.357       .  S
C1369      C1370   1.408       .  A
C1370      F1371   1.359       .  S
C1375      C1376   1.403       .  A
C1375      C1380   1.404       .  A
C1375      F1382   1.357       .  S
C1376      C1377   1.408       .  A
C1377      C1378   1.395       .  A
C1377      F1384   1.359       .  S
C1378      C1379   1.402       .  A
C1378      F1383   1.359       .  S
C1379      C1380   1.409       .  A
C1380      F1381   1.358       .  S
C1385      C1386   1.410       .  A
C1385      C1390   1.406       .  A
C1385      F1392   1.357       .  S
C1386      C1387   1.410       .  A
C1387      C1388   1.392       .  A
C1387      F1394   1.359   1_655  S
C1388      C1389   1.403       .  A
C1388      F1393   1.359       .  S
C1389      C1390   1.405       .  A
C1390      F1391   1.357       .  S
C1395      C1396   1.408       .  A
C1395      C1400   1.404       .  A
C1395      F1402   1.357       .  S
C1396      C1397   1.402       .  A
C1397      C1398   1.393       .  A
C1397      F1404   1.359       .  S
C1398      C1399   1.408       .  A
C1398      F1403   1.359       .  S
C1399      C1400   1.405       .  A
C1400      F1401   1.357       .  S
C1405      C1406   1.402       .  A
C1405      C1410   1.394       .  A
C1405      F1412   1.359       .  S
C1406      C1407   1.408       .  A
C1407      C1408   1.404       .  A
C1407      F1414   1.357       .  S
C1408      C1409   1.404       .  A
C1408      F1413   1.357       .  S
C1409      C1410   1.408       .  A
C1410      F1411   1.359       .  S
C1415      C1416   1.410       .  A
C1415      C1420   1.405       .  A
C1415      F1422   1.357       .  S
C1416      C1417   1.410       .  A
C1417      C1418   1.392       .  A
C1417      F1424   1.359       .  S
C1418      C1419   1.403       .  A
C1418      F1423   1.359       .  S
C1419      C1420   1.405       .  A
C1420      F1421   1.357       .  S
C1425      C1426   1.401       .  A
C1425      C1430   1.394       .  A
C1425      F1432   1.359       .  S
C1426      C1427   1.407       .  A
C1427      C1428   1.403       .  A
C1427      F1434   1.357       .  S
C1428      C1429   1.405       .  A
C1428      F1433   1.357       .  S
C1429      C1430   1.408       .  A
C1430      F1431   1.359       .  S
C1435      C1436   1.402       .  A
C1435      C1440   1.395       .  A
C1435      F1442   1.359       .  S
C1436      C1437   1.408       .  A
C1437      C1438   1.405       .  A
C1437      F1444   1.357       .  S
C1438      C1439   1.405       .  A
C1438      F1443   1.357       .  S
C1439      C1440   1.409       .  A
C1440      F1441   1.359       .  S
C1445      C1446   1.402       .  A
C1445      C1450   1.394       .  A
C1445      F1452   1.359       .  S
C1446      C1447   1.408       .  A
C1447      C1448   1.404       .  A
C1447      F1454   1.357       .  S
C1448      C1449   1.405       .  A
C1448      F1453   1.357       .  S
C1449      C1450   1.408       .  A
C1450      F1451   1.359       .  S
C1455      C1456   1.408       .  A
C1455      C1460   1.393       .  A
C1455      F1462   1.359       .  S
C1456      C1457   1.405       .  A
C1457      C1458   1.402       .  A
C1457      F1464   1.357       .  S
C1458      C1459   1.407       .  A
C1458      F1463   1.357       .  S
C1459      C1460   1.401       .  A
C1460      F1461   1.359       .  S
C1465      C1466   1.409       .  A
C1465      C1470   1.394       .  A
C1465      F1472   1.359       .  S
C1466      C1467   1.406       .  A
C1467      C1468   1.403       .  A
C1467      F1474   1.357       .  S
C1468      C1469   1.406       .  A
C1468      F1473   1.357       .  S
C1469      C1470   1.402       .  A
C1470      F1471   1.359       .  S
C1475      C1476   1.402       .  A
C1475      C1480   1.394       .  A
C1475      F1482   1.359       .  S
C1476      C1477   1.407       .  A
C1477      C1478   1.404       .  A
C1477      F1484   1.357       .  S
C1478      C1479   1.405       .  A
C1478      F1483   1.357       .  S
C1479      C1480   1.408       .  A
C1480      F1481   1.359       .  S
C1485      C1486   1.401       .  A
C1485      C1490   1.395       .  A
C1485      F1492   1.358       .  S
C1486      C1487   1.409       .  A
C1487      C1488   1.402       .  A
C1487      F1494   1.358       .  S
C1488      C1489   1.403       .  A
C1488      F1493   1.357       .  S
C1489      C1490   1.408       .  A
C1490      F1491   1.359       .  S
C1495      C1496   1.409       .  A
C1495      C1500   1.394       .  A
C1495      F1502   1.359       .  S
C1496      C1497   1.405       .  A
C1497      C1498   1.403       .  A
C1497      F1504   1.357       .  S
C1498      C1499   1.407       .  A
C1498      F1503   1.357       .  S
C1499      C1500   1.402       .  A
C1500      F1501   1.359       .  S
C1505      C1506   1.403       .  A
C1505      C1510   1.393       .  A
C1505      F1512   1.359       .  S
C1506      C1507   1.406       .  A
C1507      C1508   1.405       .  A
C1507      F1514   1.357       .  S
C1508      C1509   1.408       .  A
C1508      F1513   1.357       .  S
C1509      C1510   1.408       .  A
C1510      F1511   1.359       .  S
C1515      C1516   1.407       .  A
C1515      C1520   1.404       .  A
C1515      F1522   1.357       .  S
C1516      C1517   1.409       .  A
C1517      C1518   1.394       .  A
C1517      F1524   1.359       .  S
C1518      C1519   1.403       .  A
C1518      F1523   1.359       .  S
C1519      C1520   1.406       .  A
C1520      F1521   1.357       .  S
C1525      C1526   1.407       .  A
C1525      C1530   1.403       .  A
C1525      F1532   1.358       .  S
C1526      C1527   1.402       .  A
C1527      C1528   1.396       .  A
C1527      F1534   1.358       .  S
C1528      C1529   1.407       .  A
C1528      F1533   1.358       .  S
C1529      C1530   1.404       .  A
C1530      F1531   1.357       .  S
C1535      C1536   1.402       .  A
C1535      C1540   1.395       .  A
C1535      F1542   1.358       .  S
C1536      C1537   1.408       .  A
C1537      C1538   1.403       .  A
C1537      F1544   1.358       .  S
C1538      C1539   1.404       .  A
C1538      F1543   1.357       .  S
C1539      C1540   1.408       .  A
C1540      F1541   1.359       .  S
C1545      C1546   1.405       .  A
C1545      C1550   1.404       .  A
C1545      F1552   1.357       .  S
C1546      C1547   1.408       .  A
C1547      C1548   1.395       .  A
C1547      F1554   1.359       .  S
C1548      C1549   1.402       .  A
C1548      F1553   1.359       .  S
C1549      C1550   1.408       .  A
C1550      F1551   1.357       .  S
C1555      C1556   1.402       .  A
C1555      C1560   1.394       .  A
C1555      F1562   1.359       .  S
C1556      C1557   1.407       .  A
C1557      C1558   1.404       .  A
C1557      F1564   1.357       .  S
C1558      C1559   1.405       .  A
C1558      F1563   1.357       .  S
C1559      C1560   1.409       .  A
C1560      F1561   1.359       .  S
C1565      C1566   1.404       .  A
C1565      C1570   1.393       .  A
C1565      F1572   1.359       .  S
C1566      C1567   1.406       .  A
C1567      C1568   1.406       .  A
C1567      F1574   1.357       .  S
C1568      C1569   1.410       .  A
C1568      F1573   1.357       .  S
C1569      C1570   1.409       .  A
C1570      F1571   1.359       .  S
C1575      C1576   1.407       .  A
C1575      C1580   1.403       .  A
C1575      F1582   1.357       .  S
C1576      C1577   1.402       .  A
C1577      C1578   1.394       .  A
C1577      F1584   1.359       .  S
C1578      C1579   1.408       .  A
C1578      F1583   1.359       .  S
C1579      C1580   1.405       .  A
C1580      F1581   1.357       .  S
C1585      C1586   1.407       .  A
C1585      C1590   1.403       .  A
C1585      F1592   1.357       .  S
C1586      C1587   1.402       .  A
C1587      C1588   1.394       .  A
C1587      F1594   1.359       .  S
C1588      C1589   1.408       .  A
C1588      F1593   1.359       .  S
C1589      C1590   1.405       .  A
C1590      F1591   1.357       .  S
C1595      C1596   1.402       .  A
C1595      C1600   1.395       .  A
C1595      F1602   1.358       .  S
C1596      C1597   1.408       .  A
C1597      C1598   1.402       .  A
C1597      F1604   1.358       .  S
C1598      C1599   1.403       .  A
C1598      F1603   1.357       .  S
C1599      C1600   1.408       .  A
C1600      F1601   1.359       .  S
C1605      C1606   1.402       .  A
C1605      C1610   1.393       .  A
C1605      F1612   1.359       .  S
C1606      C1607   1.407       .  A
C1607      C1608   1.404       .  A
C1607      F1614   1.357       .  S
C1608      C1609   1.406       .  A
C1608      F1613   1.357       .  S
C1609      C1610   1.408       .  A
C1610      F1611   1.359       .  S
C1615      C1616   1.409       .  A
C1615      C1620   1.401       .  A
C1615      F1622   1.358       .  S
C1616      C1617   1.401       .  A
C1617      C1618   1.395       .  A
C1617      F1624   1.358       .  S
C1618      C1619   1.407       .  A
C1618      F1623   1.359       .  S
C1619      C1620   1.402       .  A
C1620      F1621   1.357       .  S
C1625      C1626   1.407       .  A
C1625      C1630   1.405       .  A
C1625      F1632   1.357       .  S
C1626      C1627   1.402       .  A
C1627      C1628   1.392       .  A
C1627      F1634   1.359       .  S
C1628      C1629   1.408       .  A
C1628      F1633   1.359       .  S
C1629      C1630   1.406       .  A
C1630      F1631   1.357       .  S
C1635      C1636   1.407       .  A
C1635      C1640   1.404       .  A
C1635      F1642   1.357       .  S
C1636      C1637   1.402       .  A
C1637      C1638   1.394       .  A
C1637      F1644   1.359       .  S
C1638      C1639   1.409       .  A
C1638      F1643   1.359       .  S
C1639      C1640   1.405       .  A
C1640      F1641   1.357       .  S
C1645      C1646   1.410       .  A
C1645      C1650   1.402       .  A
C1645      F1652   1.358       .  S
C1646      C1647   1.401       .  A
C1647      C1648   1.397       .  A
C1647      F1654   1.358       .  S
C1648      C1649   1.408       .  A
C1648      F1653   1.359       .  S
C1649      C1650   1.401       .  A
C1650      F1651   1.357       .  S
C1655      C1656   1.404       .  A
C1655      C1660   1.392       .  A
C1655      F1662   1.359       .  S
C1656      C1657   1.406       .  A
C1657      C1658   1.405       .  A
C1657      F1664   1.357       .  S
C1658      C1659   1.408       .  A
C1658      F1663   1.357       .  S
C1659      C1660   1.407       .  A
C1660      F1661   1.359       .  S
C1665      C1666   1.401       .  A
C1665      C1670   1.394       .  A
C1665      F1672   1.358       .  S
C1666      C1667   1.408       .  A
C1667      C1668   1.403       .  A
C1667      F1674   1.358       .  S
C1668      C1669   1.404       .  A
C1668      F1673   1.357       .  S
C1669      C1670   1.408       .  A
C1670      F1671   1.359       .  S
C1675      C1676   1.402       .  A
C1675      C1680   1.392       .  A
C1675      F1682   1.359       .  S
C1676      C1677   1.406       .  A
C1677      C1678   1.404       .  A
C1677      F1684   1.357       .  S
C1678      C1679   1.407       .  A
C1678      F1683   1.357       .  S
C1679      C1680   1.409       .  A
C1680      F1681   1.359       .  S
C1685      C1686   1.403       .  A
C1685      C1690   1.394       .  A
C1685      F1692   1.359       .  S
C1686      C1687   1.406       .  A
C1687      C1688   1.405       .  A
C1687      F1694   1.357       .  S
C1688      C1689   1.408       .  A
C1688      F1693   1.357       .  S
C1689      C1690   1.410       .  A
C1690      F1691   1.359       .  S
C1695      C1696   1.402       .  A
C1695      C1700   1.393       .  A
C1695      F1702   1.359       .  S
C1696      C1697   1.407       .  A
C1697      C1698   1.403       .  A
C1697      F1704   1.357       .  S
C1698      C1699   1.405       .  A
C1698      F1703   1.357       .  S
C1699      C1700   1.408       .  A
C1700      F1701   1.359       .  S
C1705      C1706   1.406       .  A
C1705      C1710   1.403       .  A
C1705      F1712   1.357       .  S
C1706      C1707   1.402       .  A
C1707      C1708   1.393       .  A
C1707      F1714   1.359       .  S
C1708      C1709   1.409       .  A
C1708      F1713   1.359       .  S
C1709      C1710   1.406       .  A
C1710      F1711   1.357       .  S
C1715      C1716   1.402       .  A
C1715      C1720   1.393       .  A
C1715      F1722   1.359       .  S
C1716      C1717   1.406       .  A
C1717      C1718   1.404       .  A
C1717      F1724   1.357       .  S
C1718      C1719   1.406       .  A
C1718      F1723   1.357       .  S
C1719      C1720   1.409       .  A
C1720      F1721   1.359       .  S
C1725      C1726   1.401       .  A
C1725      C1730   1.395       .  A
C1725      F1732   1.358       .  S
C1726      C1727   1.408       .  A
C1727      C1728   1.402       .  A
C1727      F1734   1.358       .  S
C1728      C1729   1.404       .  A
C1728      F1733   1.357       .  S
C1729      C1730   1.408       .  A
C1730      F1731   1.359       .  S
C1735      C1736   1.405       .  A
C1735      C1740   1.393       .  A
C1735      F1742   1.359       .  S
C1736      C1737   1.406       .  A
C1737      C1738   1.407       .  A
C1737      F1744   1.357       .  S
C1738      C1739   1.410       .  A
C1738      F1743   1.357       .  S
C1739      C1740   1.409       .  A
C1740      F1741   1.359       .  S
C1745      C1746   1.402       .  A
C1745      C1750   1.394       .  A
C1745      F1752   1.359       .  S
C1746      C1747   1.407       .  A
C1747      C1748   1.402       .  A
C1747      F1754   1.358       .  S
C1748      C1749   1.404       .  A
C1748      F1753   1.357       .  S
C1749      C1750   1.408       .  A
C1750      F1751   1.359       .  S
C1755      C1756   1.401       .  A
C1755      C1760   1.396       .  A
C1755      F1762   1.358       .  S
C1756      C1757   1.409       .  A
C1757      C1758   1.402       .  A
C1757      F1764   1.358       .  S
C1758      C1759   1.402       .  A
C1758      F1763   1.357       .  S
C1759      C1760   1.408       .  A
C1760      F1761   1.359       .  S
C1765      C1766   1.408       .  A
C1765      C1770   1.393       .  A
C1765      F1772   1.359       .  S
C1766      C1767   1.407       .  A
C1767      C1768   1.405       .  A
C1767      F1774   1.357       .  S
C1768      C1769   1.407       .  A
C1768      F1773   1.357       .  S
C1769      C1770   1.403       .  A
C1770      F1771   1.359       .  S
C1775      C1776   1.402       .  A
C1775      C1780   1.394       .  A
C1775      F1782   1.359       .  S
C1776      C1777   1.407       .  A
C1777      C1778   1.403       .  A
C1777      F1784   1.357       .  S
C1778      C1779   1.405       .  A
C1778      F1783   1.357       .  S
C1779      C1780   1.409       .  A
C1780      F1781   1.359       .  S
C1785      C1786   1.409       .  A
C1785      C1790   1.395       .  A
C1785      F1792   1.359       .  S
C1786      C1787   1.405       .  A
C1787      C1788   1.403       .  A
C1787      F1794   1.357       .  S
C1788      C1789   1.407       .  A
C1788      F1793   1.357       .  S
C1789      C1790   1.402       .  A
C1790      F1791   1.359       .  S
C1795      C1796   1.405       .  A
C1795      C1800   1.403       .  A
C1795      F1802   1.357       .  S
C1796      C1797   1.408       .  A
C1797      C1798   1.394       .  A
C1797      F1804   1.359       .  S
C1798      C1799   1.402       .  A
C1798      F1803   1.359       .  S
C1799      C1800   1.407       .  A
C1800      F1801   1.358       .  S
C1805      C1806   1.414       .  A
C1805      C1810   1.409       .  A
C1805      F1812   1.357       .  S
C1806      C1807   1.412       .  A
C1807      C1808   1.390       .  A
C1807      F1814   1.359   1_554  S
C1808      C1809   1.405       .  A
C1808      F1813   1.360       .  S
C1809      C1810   1.404       .  A
C1810      F1811   1.357       .  S
C1815      C1816   1.409       .  A
C1815      C1820   1.393       .  A
C1815      F1822   1.359       .  S
C1816      C1817   1.407       .  A
C1817      C1818   1.405       .  A
C1817      F1824   1.357       .  S
C1818      C1819   1.406       .  A
C1818      F1823   1.357       .  S
C1819      C1820   1.403       .  A
C1820      F1821   1.359       .  S
C1825      C1826   1.409       .  A
C1825      C1830   1.394       .  A
C1825      F1832   1.359       .  S
C1826      C1827   1.407       .  A
C1827      C1828   1.404       .  A
C1827      F1834   1.357       .  S
C1828      C1829   1.406       .  A
C1828      F1833   1.357       .  S
C1829      C1830   1.403       .  A
C1830      F1831   1.359       .  S
C1835      C1836   1.409       .  A
C1835      C1840   1.394       .  A
C1835      F1842   1.359       .  S
C1836      C1837   1.406       .  A
C1837      C1838   1.403       .  A
C1837      F1844   1.357       .  S
C1838      C1839   1.407       .  A
C1838      F1843   1.358       .  S
C1839      C1840   1.402       .  A
C1840      F1841   1.359       .  S
C1845      C1846   1.402       .  A
C1845      C1850   1.401       .  A
C1845      F1852   1.357       .  S
C1846      C1847   1.407       .  A
C1847      C1848   1.396       .  A
C1847      F1854   1.358       .  S
C1848      C1849   1.401       .  A
C1848      F1853   1.358       .  S
C1849      C1850   1.410       .  A
C1850      F1851   1.358       .  S
C1855      C1856   1.409       .  A
C1855      C1860   1.392       .  A
C1855      F1862   1.359       .  S
C1856      C1857   1.407       .  A
C1857      C1858   1.404       .  A
C1857      F1864   1.357       .  S
C1858      C1859   1.406       .  A
C1858      F1863   1.357       .  S
C1859      C1860   1.402       .  A
C1860      F1861   1.359       .  S
C1865      C1866   1.409       .  A
C1865      C1870   1.394       .  A
C1865      F1872   1.359       .  S
C1866      C1867   1.407       .  A
C1867      C1868   1.404       .  A
C1867      F1874   1.357       .  S
C1868      C1869   1.407       .  A
C1868      F1873   1.357       .  S
C1869      C1870   1.403       .  A
C1870      F1871   1.359       .  S
C1875      C1876   1.408       .  A
C1875      C1880   1.394       .  A
C1875      F1882   1.359       .  S
C1876      C1877   1.405       .  A
C1877      C1878   1.403       .  A
C1877      F1884   1.357       .  S
C1878      C1879   1.407       .  A
C1878      F1883   1.358       .  S
C1879      C1880   1.402       .  A
C1880      F1881   1.359       .  S
C1885      C1886   1.402       .  A
C1885      C1890   1.394       .  A
C1885      F1892   1.359       .  S
C1886      C1887   1.407       .  A
C1887      C1888   1.404       .  A
C1887      F1894   1.357       .  S
C1888      C1889   1.405       .  A
C1888      F1893   1.357       .  S
C1889      C1890   1.408       .  A
C1890      F1891   1.359       .  S
C1895      C1896   1.410       .  A
C1895      C1900   1.392       .  A
C1895      F1902   1.359       .  S
C1896      C1897   1.409       .  A
C1897      C1898   1.405       .  A
C1897      F1904   1.357       .  S
C1898      C1899   1.405       .  A
C1898      F1903   1.357       .  S
C1899      C1900   1.403       .  A
C1900      F1901   1.359       .  S
C1905      C1906   1.408       .  A
C1905      C1910   1.394       .  A
C1905      F1912   1.359       .  S
C1906      C1907   1.406       .  A
C1907      C1908   1.404       .  A
C1907      F1914   1.357       .  S
C1908      C1909   1.407       .  A
C1908      F1913   1.357       .  S
C1909      C1910   1.402       .  A
C1910      F1911   1.359       .  S
C1915      C1916   1.403       .  A
C1915      C1920   1.395       .  A
C1915      F1922   1.359       .  S
C1916      C1917   1.407       .  A
C1917      C1918   1.404       .  A
C1917      F1924   1.357       .  S
C1918      C1919   1.406       .  A
C1918      F1923   1.357       .  S
C1919      C1920   1.409       .  A
C1920      F1921   1.359       .  S
C1925      C1926   1.408       .  A
C1925      C1930   1.394       .  A
C1925      F1932   1.359       .  S
C1926      C1927   1.404       .  A
C1927      C1928   1.404       .  A
C1927      F1934   1.357       .  S
C1928      C1929   1.408       .  A
C1928      F1933   1.358       .  S
C1929      C1930   1.402       .  A
C1930      F1931   1.359       .  S
C1935      C1936   1.409       .  A
C1935      C1940   1.394       .  A
C1935      F1942   1.359       .  S
C1936      C1937   1.406       .  A
C1937      C1938   1.404       .  A
C1937      F1944   1.357       .  S
C1938      C1939   1.407       .  A
C1938      F1943   1.357       .  S
C1939      C1940   1.402       .  A
C1940      F1941   1.359       .  S
C1945      C1946   1.406       .  A
C1945      C1950   1.404       .  A
C1945      F1952   1.357       .  S
C1946      C1947   1.409       .  A
C1947      C1948   1.394       .  A
C1947      F1954   1.359       .  S
C1948      C1949   1.402       .  A
C1948      F1953   1.359       .  S
C1949      C1950   1.407       .  A
C1950      F1951   1.357       .  S
C1955      C1956   1.407       .  A
C1955      C1960   1.405       .  A
C1955      F1962   1.357       .  S
C1956      C1957   1.409       .  A
C1957      C1958   1.394       .  A
C1957      F1964   1.359       .  S
C1958      C1959   1.403       .  A
C1958      F1963   1.359       .  S
C1959      C1960   1.407       .  A
C1960      F1961   1.357       .  S
C1965      C1966   1.408       .  A
C1965      C1970   1.406       .  A
C1965      F1972   1.357       .  S
C1966      C1967   1.407       .  A
C1967      C1968   1.393       .  A
C1967      F1974   1.358       .  S
C1968      C1969   1.404       .  A
C1968      F1973   1.359       .  S
C1969      C1970   1.407       .  A
C1970      F1971   1.357       .  S
C1975      C1976   1.404       .  A
C1975      C1980   1.403       .  A
C1975      F1982   1.357       .  S
C1976      C1977   1.406       .  A
C1977      C1978   1.395       .  A
C1977      F1984   1.358       .  S
C1978      C1979   1.402       .  A
C1978      F1983   1.358       .  S
C1979      C1980   1.407       .  A
C1980      F1981   1.358       .  S
C1985      C1986   1.412       .  A
C1985      C1990   1.407       .  A
C1985      F1992   1.357       .  S
C1986      C1987   1.410       .  A
C1987      C1988   1.392       .  A
C1987      F1994   1.359       .  S
C1988      C1989   1.405       .  A
C1988      F1993   1.359       .  S
C1989      C1990   1.405       .  A
C1990      F1991   1.357       .  S
C1995      C1996   1.412       .  A
C1995      C2000   1.408       .  A
C1995      F2002   1.357       .  S
C1996      C1997   1.409       .  A
C1997      C1998   1.392       .  A
C1997      F2004   1.359       .  S
C1998      C1999   1.405       .  A
C1998      F2003   1.359       .  S
C1999      C2000   1.405       .  A
C2000      F2001   1.357       .  S
C2005      C2006   1.408       .  A
C2005      C2010   1.394       .  A
C2005      F2012   1.358       .  S
C2006      C2007   1.407       .  A
C2007      C2008   1.405       .  A
C2007      F2014   1.357       .  S
C2008      C2009   1.407       .  A
C2008      F2013   1.358       .  S
C2009      C2010   1.403       .  A
C2010      F2011   1.359       .  S
C2015      C2016   1.408       .  A
C2015      C2020   1.394       .  A
C2015      F2022   1.358       .  S
C2016      C2017   1.407       .  A
C2017      C2018   1.406       .  A
C2017      F2024   1.357       .  S
C2018      C2019   1.407       .  A
C2018      F2023   1.357       .  S
C2019      C2020   1.403       .  A
C2020      F2021   1.359       .  S
C2025      C2026   1.412       .  A
C2025      C2030   1.407       .  A
C2025      F2032   1.357       .  S
C2026      C2027   1.410       .  A
C2027      C2028   1.392       .  A
C2027      F2034   1.359   1_455  S
C2028      C2029   1.405       .  A
C2028      F2033   1.359       .  S
C2029      C2030   1.405       .  A
C2030      F2031   1.357       .  S
C2035      C2036   1.408       .  A
C2035      C2040   1.395       .  A
C2035      F2042   1.358       .  S
C2036      C2037   1.406       .  A
C2037      C2038   1.404       .  A
C2037      F2044   1.357       .  S
C2038      C2039   1.407       .  A
C2038      F2043   1.358       .  S
C2039      C2040   1.403       .  A
C2040      F2041   1.359       .  S
C2045      C2046   1.397       .  A
C2045      C2050   1.396       .  A
C2045      F2052   1.358       .  S
C2046      C2047   1.409       .  A
C2047      C2048   1.403       .  A
C2047      F2054   1.358       .  S
C2048      C2049   1.403       .  A
C2048      F2053   1.358       .  S
C2049      C2050   1.413       .  A
C2050      F2051   1.359       .  S
C2055      C2056   1.409       .  A
C2055      C2060   1.393       .  A
C2055      F2062   1.359       .  S
C2056      C2057   1.409       .  A
C2057      C2058   1.406       .  A
C2057      F2064   1.357       .  S
C2058      C2059   1.406       .  A
C2058      F2063   1.357       .  S
C2059      C2060   1.404       .  A
C2060      F2061   1.359       .  S
C2065      C2066   1.407       .  A
C2065      C2070   1.404       .  A
C2065      F2072   1.358       .  S
C2066      C2067   1.403       .  A
C2067      C2068   1.395       .  A
C2067      F2074   1.359       .  S
C2068      C2069   1.408       .  A
C2068      F2073   1.358       .  S
C2069      C2070   1.406       .  A
C2070      F2071   1.357       .  S
C2075      C2076   1.408       .  A
C2075      C2080   1.405       .  A
C2075      F2082   1.357       .  S
C2076      C2077   1.409       .  A
C2077      C2078   1.392       .  A
C2077      F2084   1.359       .  S
C2078      C2079   1.402       .  A
C2078      F2083   1.359       .  S
C2079      C2080   1.405       .  A
C2080      F2081   1.357       .  S
C2085      C2086   1.404       .  A
C2085      C2090   1.393       .  A
C2085      F2092   1.359       .  S
C2086      C2087   1.406       .  A
C2087      C2088   1.406       .  A
C2087      F2094   1.357       .  S
C2088      C2089   1.408       .  A
C2088      F2093   1.357       .  S
C2089      C2090   1.408       .  A
C2090      F2091   1.359       .  S
C2095      C2096   1.406       .  A
C2095      C2100   1.404       .  A
C2095      F2102   1.358       .  S
C2096      C2097   1.402       .  A
C2097      C2098   1.393       .  A
C2097      F2104   1.359       .  S
C2098      C2099   1.407       .  A
C2098      F2103   1.358       .  S
C2099      C2100   1.406       .  A
C2100      F2101   1.357       .  S
C2105      C2106   1.402       .  A
C2105      C2110   1.394       .  A
C2105      F2112   1.359       .  S
C2106      C2107   1.407       .  A
C2107      C2108   1.405       .  A
C2107      F2114   1.357       .  S
C2108      C2109   1.406       .  A
C2108      F2113   1.357       .  S
C2109      C2110   1.409       .  A
C2110      F2111   1.359       .  S
C2115      C2116   1.404       .  A
C2115      C2120   1.403       .  A
C2115      F2122   1.357       .  S
C2116      C2117   1.408       .  A
C2117      C2118   1.396       .  A
C2117      F2124   1.359       .  S
C2118      C2119   1.402       .  A
C2118      F2123   1.358       .  S
C2119      C2120   1.409       .  A
C2120      F2121   1.358       .  S
C2125      C2126   1.408       .  A
C2125      C2130   1.394       .  A
C2125      F2132   1.359       .  S
C2126      C2127   1.404       .  A
C2127      C2128   1.402       .  A
C2127      F2134   1.357       .  S
C2128      C2129   1.408       .  A
C2128      F2133   1.358       .  S
C2129      C2130   1.401       .  A
C2130      F2131   1.359       .  S
C2135      C2136   1.405       .  A
C2135      C2140   1.405       .  A
C2135      F2142   1.357       .  S
C2136      C2137   1.408       .  A
C2137      C2138   1.393       .  A
C2137      F2144   1.359       .  S
C2138      C2139   1.402       .  A
C2138      F2143   1.359       .  S
C2139      C2140   1.407       .  A
C2140      F2141   1.357       .  S
C2145      C2146   1.409       .  A
C2145      C2150   1.392       .  A
C2145      F2152   1.359       .  S
C2146      C2147   1.407       .  A
C2147      C2148   1.405       .  A
C2147      F2154   1.357       .  S
C2148      C2149   1.406       .  A
C2148      F2153   1.357       .  S
C2149      C2150   1.403       .  A
C2150      F2151   1.359       .  S
C2155      C2156   1.407       .  A
C2155      C2160   1.398       .  A
C2155      F2162   1.358       .  S
C2156      C2157   1.400       .  A
C2157      C2158   1.401       .  A
C2157      F2164   1.357       .  S
C2158      C2159   1.411       .  A
C2158      F2163   1.358       .  S
C2159      C2160   1.402       .  A
C2160      F2161   1.358       .  S
C2165      C2166   1.408       .  A
C2165      C2170   1.394       .  A
C2165      F2172   1.359       .  S
C2166      C2167   1.405       .  A
C2167      C2168   1.403       .  A
C2167      F2174   1.357       .  S
C2168      C2169   1.408       .  A
C2168      F2173   1.357       .  S
C2169      C2170   1.402       .  A
C2170      F2171   1.359       .  S
C2175      C2176   1.409       .  A
C2175      C2180   1.393       .  A
C2175      F2182   1.359       .  S
C2176      C2177   1.407       .  A
C2177      C2178   1.404       .  A
C2177      F2184   1.357       .  S
C2178      C2179   1.406       .  A
C2178      F2183   1.357       .  S
C2179      C2180   1.402       .  A
C2180      F2181   1.359       .  S
C2185      C2186   1.402       .  A
C2185      C2190   1.395       .  A
C2185      F2192   1.358       .  S
C2186      C2187   1.408       .  A
C2187      C2188   1.403       .  A
C2187      F2194   1.358       .  S
C2188      C2189   1.404       .  A
C2188      F2193   1.357       .  S
C2189      C2190   1.409       .  A
C2190      F2191   1.359       .  S
C2195      C2196   1.402       .  A
C2195      C2200   1.395       .  A
C2195      F2202   1.359       .  S
C2196      C2197   1.408       .  A
C2197      C2198   1.403       .  A
C2197      F2204   1.358       .  S
C2198      C2199   1.404       .  A
C2198      F2203   1.357       .  S
C2199      C2200   1.408       .  A
C2200      F2201   1.359       .  S
C2205      C2206   1.406       .  A
C2205      C2210   1.405       .  A
C2205      F2212   1.357       .  S
C2206      C2207   1.409       .  A
C2207      C2208   1.394       .  A
C2207      F2214   1.359       .  S
C2208      C2209   1.403       .  A
C2208      F2213   1.359       .  S
C2209      C2210   1.407       .  A
C2210      F2211   1.357       .  S
C2215      C2216   1.411       .  A
C2215      C2220   1.408       .  A
C2215      F2222   1.357       .  S
C2216      C2217   1.411       .  A
C2217      C2218   1.392       .  A
C2217      F2224   1.359       .  S
C2218      C2219   1.404       .  A
C2218      F2223   1.359       .  S
C2219      C2220   1.405       .  A
C2220      F2221   1.357       .  S
C2225      C2226   1.403       .  A
C2225      C2230   1.403       .  A
C2225      F2232   1.357       .  S
C2226      C2227   1.408       .  A
C2227      C2228   1.396       .  A
C2227      F2234   1.359       .  S
C2228      C2229   1.402       .  A
C2228      F2233   1.358       .  S
C2229      C2230   1.409       .  A
C2230      F2231   1.358       .  S
C2235      C2236   1.409       .  A
C2235      C2240   1.393       .  A
C2235      F2242   1.359       .  S
C2236      C2237   1.407       .  A
C2237      C2238   1.405       .  A
C2237      F2244   1.357       .  S
C2238      C2239   1.406       .  A
C2238      F2243   1.357       .  S
C2239      C2240   1.403       .  A
C2240      F2241   1.359       .  S
C2245      C2246   1.409       .  A
C2245      C2250   1.392       .  A
C2245      F2252   1.359       .  S
C2246      C2247   1.409       .  A
C2247      C2248   1.406       .  A
C2247      F2254   1.357       .  S
C2248      C2249   1.406       .  A
C2248      F2253   1.357       .  S
C2249      C2250   1.404       .  A
C2250      F2251   1.359       .  S
C2255      C2256   1.407       .  A
C2255      C2260   1.405       .  A
C2255      F2262   1.357       .  S
C2256      C2257   1.408       .  A
C2257      C2258   1.394       .  A
C2257      F2264   1.358       .  S
C2258      C2259   1.403       .  A
C2258      F2263   1.359       .  S
C2259      C2260   1.407       .  A
C2260      F2261   1.358       .  S
C2265      C2266   1.408       .  A
C2265      C2270   1.394       .  A
C2265      F2272   1.359       .  S
C2266      C2267   1.407       .  A
C2267      C2268   1.404       .  A
C2267      F2274   1.357       .  S
C2268      C2269   1.406       .  A
C2268      F2273   1.358       .  S
C2269      C2270   1.403       .  A
C2270      F2271   1.359       .  S
C2275      C2276   1.408       .  A
C2275      C2280   1.394       .  A
C2275      F2282   1.358       .  S
C2276      C2277   1.407       .  A
C2277      C2278   1.404       .  A
C2277      F2284   1.357       .  S
C2278      C2279   1.406       .  A
C2278      F2283   1.358       .  S
C2279      C2280   1.403       .  A
C2280      F2281   1.359       .  S
C2285      C2286   1.407       .  A
C2285      C2290   1.395       .  A
C2285      F2292   1.358       .  S
C2286      C2287   1.405       .  A
C2287      C2288   1.404       .  A
C2287      F2294   1.357       .  S
C2288      C2289   1.407       .  A
C2288      F2293   1.358       .  S
C2289      C2290   1.403       .  A
C2290      F2291   1.358       .  S
C2295      C2296   1.410       .  A
C2295      C2300   1.405       .  A
C2295      F2302   1.357       .  S
C2296      C2297   1.409       .  A
C2297      C2298   1.392       .  A
C2297      F2304   1.359       .  S
C2298      C2299   1.404       .  A
C2298      F2303   1.359       .  S
C2299      C2300   1.405       .  A
C2300      F2301   1.357       .  S
