geometry optimzed in LAMMPS
_audit_creation_date              2020-11-30 
_audit_creation_method            'lammps2cif' 
_symmetry_space_group_name_H-M    'P1' 
_symmetry_Int_Tables_number       1 
_symmetry_cell_setting            triclinic 
loop_ 
_symmetry_equiv_pos_as_xyz 
  x,y,z 
_cell_length_a                    63.95113279422008 
_cell_length_b                    63.88882806228084 
_cell_length_c                    63.87443492020694 
_cell_angle_alpha                 90.0163606304704 
_cell_angle_beta                  90.13281946777235 
_cell_angle_gamma                 89.96803795290498 
loop_ 
_atom_site_label 
_atom_site_type_symbol 
_atom_site_fract_x 
_atom_site_fract_y 
_atom_site_fract_z 
_atom_site_charge 
N1          N  0.63894689  0.74632405  0.89718491    -0.26100
N2          N  0.65814121  0.74290242  0.89032387    -0.33960
C3          C  0.67139209  0.74250746  0.90653258     0.02240
C4          C  0.66016727  0.74580689  0.92458568     0.08260
C5          C  0.63954626  0.74801029  0.91824285    -0.04840
H6          H  0.68818103  0.74093710  0.90514758     0.08930
H7          H  0.62626842  0.75181519  0.92799389     0.10130
Cu8        Cu  0.66738563  0.74243600  0.85960823     0.44170
Cu9        Cu  0.61391066  0.75115885  0.87688738     0.41990
Cu10       Cu  0.63292447  0.76414975  0.82370741     0.43880
N11         N  0.67644176  0.74949099  0.82966210    -0.33490
N12         N  0.66375031  0.75870242  0.81624910    -0.27740
C13         C  0.67398032  0.76196620  0.79818561    -0.03840
C14         C  0.69412456  0.75428267  0.80045254     0.08370
C15         C  0.69511631  0.74651865  0.82064619     0.02170
H16         H  0.66707279  0.76880480  0.78430660     0.09820
H17         H  0.70842293  0.73939054  0.82832675     0.08900
N18         N  0.60200385  0.76141319  0.83226072    -0.34940
N19         N  0.59477572  0.75641078  0.85100651    -0.27120
C20         C  0.57388499  0.75384170  0.84966331    -0.02360
C21         C  0.56793643  0.75713056  0.82905712     0.06250
C22         C  0.58611839  0.76203794  0.81860870     0.04350
H23         H  0.56399294  0.74887049  0.86244316     0.09450
H24         H  0.58786036  0.76512385  0.80205008     0.08290
C25         C  0.71084327  0.75373869  0.78463242     0.04320
C26         C  0.71171438  0.76885970  0.76875134    -0.11830
C27         C  0.72769241  0.76825222  0.75375364     0.01820
C28         C  0.74302300  0.75260861  0.75485430    -0.10360
C29         C  0.74229079  0.73750090  0.77071021     0.04310
C30         C  0.72612524  0.73801745  0.78542188    -0.09780
H31         H  0.69996633  0.78106149  0.76800173     0.09900
H32         H  0.75549385  0.75218526  0.74340171     0.07430
H33         H  0.72556265  0.72619219  0.79755571     0.07280
N34         N  0.72861361  0.88197673  0.68246538    -0.26100
N35         N  0.72621334  0.87517869  0.70187407    -0.33960
C36         C  0.72650520  0.89138471  0.71509617     0.02240
C37         C  0.72910454  0.90944411  0.70369527     0.08260
C38         C  0.73021732  0.90306669  0.68294855    -0.04840
H39         H  0.72513700  0.89004487  0.73192575     0.08930
H40         H  0.73270961  0.91288378  0.66938771     0.10130
Cu41       Cu  0.72388183  0.84463834  0.71136714     0.44170
Cu42       Cu  0.73095902  0.86151871  0.65699216     0.41990
Cu43       Cu  0.73573571  0.80654719  0.67506817     0.43880
N44         N  0.72636002  0.81382903  0.71986711    -0.33490
N45         N  0.73199749  0.79936286  0.70630033    -0.27740
C46         C  0.73355925  0.78087550  0.71621244    -0.03840
C47         C  0.72838959  0.78399786  0.73701563     0.08370
C48         C  0.72385483  0.80506648  0.73878477     0.02170
H49         H  0.73769294  0.76623890  0.70876931     0.09820
H50         H  0.71946807  0.81347501  0.75281105     0.08900
N51         N  0.73463925  0.81602999  0.64420062    -0.34940
N52         N  0.73297676  0.83548078  0.63720208    -0.27120
C53         C  0.73142296  0.83492585  0.61610378    -0.02360
C54         C  0.73195764  0.81416451  0.60984788     0.06250
C55         C  0.73397720  0.80274524  0.62800243     0.04350
H56         H  0.72910804  0.84847617  0.60621583     0.09450
H57         H  0.73426534  0.78586716  0.62940630     0.08290
N58         N  0.85667586  0.66656649  0.77266041    -0.26100
N59         N  0.85020732  0.68623942  0.77320255    -0.33960
C60         C  0.86667698  0.69910939  0.77253358     0.02240
C61         C  0.88468198  0.68732280  0.77117943     0.08260
C62         C  0.87782010  0.66662365  0.77143275    -0.04840
H63         H  0.86550007  0.71599464  0.77189140     0.08930
H64         H  0.88733628  0.65275277  0.76954973     0.10130
Cu65       Cu  0.81977416  0.69658163  0.77213904     0.44170
Cu66       Cu  0.83558965  0.64114845  0.77214998     0.41990
Cu67       Cu  0.78136228  0.65962779  0.77949935     0.43880
N68         N  0.78872493  0.70480717  0.77248668    -0.33490
N69         N  0.77415205  0.69082684  0.77653646    -0.27740
C70         C  0.75538603  0.70024496  0.77660682    -0.03840
C71         C  0.75839578  0.72118111  0.77206468     0.08370
C72         C  0.77971865  0.72357186  0.76948304     0.02170
H73         H  0.74065778  0.69236338  0.77924635     0.09820
H74         H  0.78807362  0.73788450  0.76606705     0.08900
N75         N  0.78990029  0.62883068  0.77566660    -0.34940
N76         N  0.80902952  0.62153206  0.77262869    -0.27120
C77         C  0.80768595  0.60061518  0.76951652    -0.02360
C78         C  0.78671077  0.59478419  0.77039734     0.06250
C79         C  0.77610537  0.61312703  0.77447991     0.04350
H80         H  0.82088311  0.59052557  0.76631465     0.09450
H81         H  0.75941710  0.61506114  0.77641507     0.08290
C82         C  0.49013894  0.75396847  0.78441993     0.03470
C83         C  0.47462510  0.73829745  0.78590707     0.03470
C84         C  0.45865635  0.73736911  0.77056657     0.03470
C85         C  0.45767077  0.75258770  0.75451315     0.03470
C86         C  0.47318181  0.76825154  0.75318217     0.03470
C87         C  0.48924430  0.76915405  0.76832197     0.03470
N88         N  0.47349306  0.12875876  0.85066442    -0.26100
N89         N  0.47011016  0.12169180  0.83147174    -0.33960
C90         C  0.47008166  0.13768904  0.81797601     0.02240
C91         C  0.47353965  0.15590633  0.82893268     0.08260
C92         C  0.47546730  0.14981642  0.84973041    -0.04840
H93         H  0.46825812  0.13605557  0.80120756     0.08930
H94         H  0.47900287  0.15977860  0.86296763     0.10130
Cu95       Cu  0.46799501  0.09095445  0.82236369     0.44170
Cu96       Cu  0.47710040  0.10865419  0.87644618     0.41990
Cu97       Cu  0.48322851  0.05401793  0.85869998     0.43880
N98         N  0.47250754  0.06027757  0.81404010    -0.33490
N99         N  0.47941553  0.04640166  0.82765381    -0.27740
C100        C  0.48246314  0.02805176  0.81786584    -0.03840
C101        C  0.47698577  0.03059773  0.79705487     0.08370
C102        C  0.47068835  0.05121499  0.79516595     0.02170
H103        H  0.48795614  0.01390235  0.82538523     0.09820
H104        H  0.46570455  0.05917895  0.78106457     0.08900
N105        N  0.48238727  0.06339820  0.88950662    -0.34940
N106        N  0.48034724  0.08279745  0.89652223    -0.27120
C107        C  0.47942554  0.08216256  0.91766697    -0.02360
C108        C  0.48067624  0.06137714  0.92390836     0.06250
C109        C  0.48254190  0.05007369  0.90566975     0.04350
H110        H  0.47708295  0.09564601  0.92763804     0.09450
H111        H  0.48342836  0.03322312  0.90418745     0.08290
C112        C  0.46294712  0.99919948  0.74896960     0.04320
C113        C  0.47923774  0.98454503  0.74867491    -0.11830
C114        C  0.49477836  0.98483696  0.76417372     0.01820
C115        C  0.49399517  0.99998951  0.78002000    -0.10360
C116        C  0.47782629  0.01478945  0.78037399     0.04310
C117        C  0.46236797  0.01437235  0.76480214    -0.09780
H118        H  0.47971658  0.97277864  0.73647586     0.09900
H119        H  0.50588832  0.00023004  0.79212085     0.07430
H120        H  0.44982565  0.02577298  0.76510470     0.07280
N121        N  0.39247780  0.99379563  0.63506572    -0.26100
N122        N  0.41158826  0.99008701  0.64216983    -0.33960
C123        C  0.42513597  0.99015128  0.62624754     0.02240
C124        C  0.41436183  0.99410617  0.60799604     0.08260
C125        C  0.39356011  0.99613120  0.61403597    -0.04840
H126        H  0.44182343  0.98793204  0.62798346     0.08930
H127        H  0.38040244  0.99987326  0.60404309     0.10130
Cu128      Cu  0.42075044  0.98767248  0.67289525     0.44170
Cu129      Cu  0.36654033  0.99708437  0.65513005     0.41990
Cu130      Cu  0.38491729  0.00418782  0.70930561     0.43880
N131        N  0.42936618  0.99317533  0.70336030    -0.33490
N132        N  0.41584663  0.00052481  0.71703373    -0.27740
C133        C  0.42562575  0.00397831  0.73532215    -0.03840
C134        C  0.44639533  0.99839570  0.73296177     0.08370
C135        C  0.44822369  0.99156570  0.71248153     0.02170
H136        H  0.41808406  0.00972412  0.74933644     0.09820
H137        H  0.46223835  0.98623870  0.70466000     0.08900
N138        N  0.35408184  0.00244035  0.70050813    -0.34940
N139        N  0.34669021  0.99993538  0.68129367    -0.27120
C140        C  0.32560621  0.99839702  0.68246907    -0.02360
C141        C  0.31986056  0.99969021  0.70342805     0.06250
C142        C  0.33831003  0.00230454  0.71421778     0.04350
H143        H  0.31535933  0.99569025  0.66924753     0.09450
H144        H  0.34022989  0.00360097  0.73100506     0.08290
N145        N  0.56290644  0.86999643  0.76396622    -0.26100
N146        N  0.54424975  0.87773232  0.75937297    -0.33960
C147        C  0.52994165  0.86247516  0.75978578     0.02240
C148        C  0.53972046  0.84395927  0.76479035     0.08260
C149        C  0.56075627  0.84914283  0.76717080    -0.04840
H150        H  0.51339473  0.86485584  0.75712276     0.08930
H151        H  0.57330753  0.83874046  0.77175153     0.10130
Cu152      Cu  0.53674646  0.90865645  0.75529755     0.44170
Cu153      Cu  0.58942955  0.88948671  0.76728359     0.41990
Cu154      Cu  0.57178947  0.94411092  0.77522508     0.43880
N155        N  0.52849100  0.93927544  0.75999385    -0.33490
N156        N  0.54148958  0.95262967  0.76879568    -0.27740
C157        C  0.53169543  0.97101901  0.77157271    -0.03840
C158        C  0.51148329  0.96900687  0.76401798     0.08370
C159        C  0.51000470  0.94865809  0.75677138     0.02170
H160        H  0.53881077  0.98479544  0.77838224     0.09820
H161        H  0.49636020  0.94101015  0.75029081     0.08900
N162        N  0.60247458  0.93476210  0.77340083    -0.34940
N163        N  0.60959876  0.91555870  0.77019539    -0.27120
C164        C  0.63062275  0.91668425  0.76783107    -0.02360
C165        C  0.63660035  0.93758948  0.76932715     0.06250
C166        C  0.61834596  0.94837402  0.77297678     0.04350
H167        H  0.64062645  0.90349971  0.76428620     0.09450
H168        H  0.61656550  0.96514828  0.77452260     0.08290
N169        N  0.48867534  0.37898426  0.10324358    -0.26100
N170        N  0.49155955  0.37249121  0.08376483    -0.33960
C171        C  0.49060871  0.38884556  0.07069092     0.02240
C172        C  0.48697517  0.40673032  0.08217456     0.08260
C173        C  0.48601486  0.40001152  0.10287155    -0.04840
H174        H  0.49185184  0.38766200  0.05383966     0.08930
H175        H  0.48262029  0.40952341  0.11645887     0.10130
Cu176      Cu  0.49408546  0.34195330  0.07365936     0.44170
Cu177      Cu  0.48651721  0.35818271  0.12883214     0.41990
Cu178      Cu  0.48051606  0.30431417  0.10979322     0.43880
N179        N  0.48964587  0.31123925  0.06495180    -0.33490
N180        N  0.48336170  0.29717393  0.07863600    -0.27740
C181        C  0.48000642  0.27890671  0.06881407    -0.03840
C182        C  0.48459707  0.28164988  0.04786178     0.08370
C183        C  0.49074829  0.30232720  0.04593259     0.02170
H184        H  0.47485641  0.26468270  0.07640084     0.09820
H185        H  0.49509302  0.31042728  0.03172266     0.08900
N186        N  0.48180063  0.31260584  0.14080032    -0.34940
N187        N  0.48394764  0.33173333  0.14845614    -0.27120
C188        C  0.48477611  0.33030934  0.16959796    -0.02360
C189        C  0.48338115  0.30926953  0.17515533     0.06250
C190        C  0.48139934  0.29871927  0.15645375     0.04350
H191        H  0.48682514  0.34346360  0.18006654     0.09450
H192        H  0.47982417  0.28199920  0.15427350     0.08290
C193        C  0.49697006  0.25009673  0.99946062     0.04320
C194        C  0.49802297  0.26538556  0.01517311    -0.11830
C195        C  0.48308342  0.26589370  0.03116397     0.01820
C196        C  0.46686791  0.25113416  0.03130294    -0.10360
C197        C  0.46557947  0.23590049  0.01556529     0.04310
C198        C  0.48068692  0.23544744  0.99971898    -0.09780
H199        H  0.51054128  0.27679681  0.01509122     0.09900
H200        H  0.45533037  0.25146683  0.04369029     0.07430
H201        H  0.47981375  0.22360180  0.98762188     0.07280
N202        N  0.56368026  0.24384836  0.88376710    -0.26100
N203        N  0.54490802  0.23988506  0.89151410    -0.33960
C204        C  0.53069455  0.24025121  0.87612825     0.02240
C205        C  0.54066556  0.24466331  0.85758708     0.08260
C206        C  0.56169320  0.24664651  0.86285463    -0.04840
H207        H  0.51408699  0.23805162  0.87845310     0.08930
H208        H  0.57437407  0.25076219  0.85246489     0.10130
Cu209      Cu  0.53692046  0.23716989  0.92250529     0.44170
Cu210      Cu  0.59036709  0.24718795  0.90288371     0.41990
Cu211      Cu  0.57303852  0.25690365  0.95682053     0.43880
N212        N  0.52909209  0.24351066  0.95298897    -0.33490
N213        N  0.54272230  0.25210743  0.96584078    -0.27740
C214        C  0.53352038  0.25585335  0.98431929    -0.03840
C215        C  0.51296680  0.24922215  0.98294986     0.08370
C216        C  0.51069604  0.24143752  0.96283225     0.02170
H217        H  0.54132976  0.26255622  0.99777954     0.09820
H218        H  0.49666874  0.23518209  0.95570653     0.08900
N219        N  0.60362922  0.25448508  0.94771668    -0.34940
N220        N  0.61071177  0.25075396  0.92862270    -0.27120
C221        C  0.63174735  0.24855171  0.92977345    -0.02360
C222        C  0.63773552  0.25070781  0.95062170     0.06250
C223        C  0.61951771  0.25454157  0.96133151     0.04350
H224        H  0.64175312  0.24477176  0.91667327     0.09450
H225        H  0.61779671  0.25666421  0.97804868     0.08290
N226        N  0.39594172  0.12220078  0.01409606    -0.26100
N227        N  0.41474423  0.12951201  0.00958741    -0.33960
C228        C  0.42862051  0.11383017  0.00958055     0.02240
C229        C  0.41834248  0.09550464  0.01431238     0.08260
C230        C  0.39750816  0.10127512  0.01689626    -0.04840
H231        H  0.44515559  0.11577942  0.00662889     0.08930
H232        H  0.38465702  0.09117236  0.02121678     0.10130
Cu233      Cu  0.42272796  0.16037162  0.00613643     0.44170
Cu234      Cu  0.36993764  0.14208937  0.01761120     0.41990
Cu235      Cu  0.38780362  0.19647289  0.02624480     0.43880
N236        N  0.43124970  0.19081013  0.01146166    -0.33490
N237        N  0.41843416  0.20433139  0.02026905    -0.27740
C238        C  0.42855338  0.22253100  0.02322236    -0.03840
C239        C  0.44874071  0.22021546  0.01575222     0.08370
C240        C  0.44988259  0.19989230  0.00840244     0.02170
H241        H  0.42163309  0.23644237  0.02994224     0.09820
H242        H  0.46336178  0.19208828  0.00180376     0.08900
N243        N  0.35698472  0.18722443  0.02443567    -0.34940
N244        N  0.34993909  0.16806239  0.02089662    -0.27120
C245        C  0.32890330  0.16903289  0.01877322    -0.02360
C246        C  0.32269621  0.18981377  0.02081898     0.06250
C247        C  0.34094761  0.20068856  0.02457648     0.04350
H248        H  0.31900686  0.15578697  0.01515611     0.09450
H249        H  0.34261538  0.21738730  0.02682625     0.08290
C250        C  0.22860502  0.98341032  0.75090729     0.03470
C251        C  0.24422004  0.99897258  0.75204208     0.03470
C252        C  0.24363926  0.01407693  0.76821624     0.03470
C253        C  0.22803488  0.01308210  0.78384323     0.03470
C254        C  0.21248372  0.99746123  0.78267723     0.03470
C255        C  0.21295796  0.98248193  0.76641151     0.03470
N256        N  0.96792647  0.41992286  0.13785282    -0.26100
N257        N  0.96651046  0.43953578  0.14443117    -0.33960
C258        C  0.96789672  0.45254553  0.12806253     0.02240
C259        C  0.97010738  0.44079531  0.11015721     0.08260
C260        C  0.96992656  0.42010642  0.11678540    -0.04840
H261        H  0.96769023  0.46944570  0.12918904     0.08930
H262        H  0.97193897  0.40632722  0.10715284     0.10130
Cu263      Cu  0.96448319  0.44951632  0.17498993     0.44170
Cu264      Cu  0.96893530  0.39420429  0.15836041     0.41990
Cu265      Cu  0.97367252  0.41205268  0.21283493     0.43880
N266        N  0.96828855  0.45751947  0.20593846    -0.33490
N267        N  0.97293343  0.44331879  0.22016451    -0.27740
C268        C  0.97632177  0.45279765  0.23862963    -0.03840
C269        C  0.97342794  0.47404545  0.23580162     0.08370
C270        C  0.96823442  0.47651986  0.21491879     0.02170
H271        H  0.98026761  0.44480586  0.25303746     0.09820
H272        H  0.96519052  0.49104875  0.20676095     0.08900
N273        N  0.97188689  0.38126273  0.20377271    -0.34940
N274        N  0.97048353  0.37410620  0.18437694    -0.27120
C275        C  0.96966400  0.35295715  0.18515902    -0.02360
C276        C  0.97025035  0.34686079  0.20605774     0.06250
C277        C  0.97173299  0.36523320  0.21723035     0.04350
H278        H  0.96824173  0.34285091  0.17164073     0.09450
H279        H  0.97272579  0.36689843  0.23406170     0.08290
N280        N  0.05969506  0.50663018  0.39765861    -0.26100
N281        N  0.04057409  0.50936663  0.39022150    -0.33960
C282        C  0.02675092  0.50823316  0.40584873     0.02240
C283        C  0.03740617  0.50449216  0.42424324     0.08260
C284        C  0.05838420  0.50376915  0.41858225    -0.04840
H285        H  0.01002689  0.50982374  0.40381920     0.08930
H286        H  0.07158465  0.50073587  0.42875525     0.10130
Cu287      Cu  0.03233383  0.51235365  0.35934741     0.44170
Cu288      Cu  0.08599151  0.50585983  0.37811233     0.41990
Cu289      Cu  0.07032946  0.50333107  0.32225646     0.43880
N290        N  0.02494036  0.50871441  0.32835088    -0.33490
N291        N  0.03920658  0.50409605  0.31423830    -0.27740
C292        C  0.02988628  0.50162070  0.29551215    -0.03840
C293        C  0.00872524  0.50516579  0.29815116     0.08370
C294        C  0.00612687  0.50965024  0.31913038     0.02170
H295        H  0.03796552  0.49829972  0.28102273     0.09820
H296        H  0.99166287  0.51326161  0.32711175     0.08900
N297        N  0.10062553  0.50490610  0.33306307    -0.34940
N298        N  0.10687405  0.50541510  0.35283005    -0.27120
C299        C  0.12798444  0.50428748  0.35320402    -0.02360
C300        C  0.13508942  0.50297096  0.33270085     0.06250
C301        C  0.11728414  0.50361655  0.32051939     0.04350
H302        H  0.13730285  0.50312304  0.36730866     0.09450
H303        H  0.11638650  0.50204254  0.30367171     0.08290
C304        C  0.99244261  0.50572791  0.28199470     0.04320
C305        C  0.99124458  0.49009382  0.26664285    -0.11830
C306        C  0.97514308  0.49054650  0.25169802     0.01820
C307        C  0.96034795  0.50669367  0.25217313    -0.10360
C308        C  0.96148707  0.52228988  0.26753331     0.04310
C309        C  0.97759165  0.52181630  0.28232800    -0.09780
H310        H  0.00266922  0.47756071  0.26644312     0.09900
H311        H  0.94780008  0.50697056  0.24074164     0.07430
H312        H  0.97839360  0.53380489  0.29431629     0.07280
N313        N  0.84475918  0.58826541  0.26954401    -0.26100
N314        N  0.85334659  0.56967295  0.26673391    -0.33960
C315        C  0.83869107  0.55487948  0.26685387     0.02240
C316        C  0.81954423  0.56405282  0.27042252     0.08260
C317        C  0.82387413  0.58546419  0.27178361    -0.04840
H318        H  0.84206307  0.53846520  0.26445498     0.08930
H319        H  0.81282462  0.59795072  0.27468379     0.10130
Cu320      Cu  0.88429498  0.56254129  0.26501324     0.44170
Cu321      Cu  0.86342316  0.61548376  0.27025126     0.41990
Cu322      Cu  0.91974581  0.59903024  0.27675990     0.43880
N323        N  0.91496426  0.55449629  0.26766423    -0.33490
N324        N  0.92897068  0.56852639  0.27314525    -0.27740
C325        C  0.94787139  0.55939138  0.27405165    -0.03840
C326        C  0.94536301  0.53854138  0.26866022     0.08370
C327        C  0.92429257  0.53596188  0.26474929     0.02170
H328        H  0.96231028  0.56738203  0.27781737     0.09820
H329        H  0.91629731  0.52170008  0.26034852     0.08900
N330        N  0.90897597  0.62901361  0.27278470    -0.34940
N331        N  0.88953778  0.63570538  0.27007427    -0.27120
C332        C  0.89023318  0.65661073  0.26657816    -0.02360
C333        C  0.91107680  0.66291034  0.26682930     0.06250
C334        C  0.92224748  0.64501240  0.27100380     0.04350
H335        H  0.87671288  0.66633702  0.26354071     0.09450
H336        H  0.93903559  0.64356624  0.27255584     0.08290
C337        C  0.72565592  0.51581478  0.78376188     0.03470
C338        C  0.74161104  0.51647732  0.76853427     0.03470
C339        C  0.74299818  0.50046783  0.75333335     0.03470
C340        C  0.72779034  0.48437970  0.75279163     0.03470
C341        C  0.71154304  0.48401448  0.76781089     0.03470
C342        C  0.71041070  0.49983852  0.78321622     0.03470
N343        N  0.85633058  0.50272942  0.10309658    -0.26100
N344        N  0.84845378  0.50782528  0.08462151    -0.33960
C345        C  0.86373286  0.50866422  0.07040816     0.02240
C346        C  0.88240614  0.50362513  0.07997452     0.08260
C347        C  0.87723505  0.50017748  0.10088303    -0.04840
H348        H  0.86118922  0.51216193  0.05403219     0.08930
H349        H  0.88769846  0.49532689  0.11329556     0.10130
Cu350      Cu  0.81738974  0.51021701  0.07690125     0.44170
Cu351      Cu  0.83710915  0.49851076  0.12953495     0.41990
Cu352      Cu  0.78203792  0.49187599  0.11275741     0.43880
N353        N  0.78697453  0.50421596  0.06862124    -0.33490
N354        N  0.77366490  0.49612803  0.08206697    -0.27740
C355        C  0.75530101  0.49272262  0.07242181    -0.03840
C356        C  0.75726013  0.49913803  0.05182758     0.08370
C357        C  0.77757032  0.50633634  0.04995948     0.02170
H358        H  0.74150643  0.48649702  0.07995200     0.09820
H359        H  0.78509096  0.51230686  0.03603517     0.08900
N360        N  0.79187802  0.49448802  0.14323611    -0.34940
N361        N  0.81134998  0.49663419  0.15000683    -0.27120
C362        C  0.81084468  0.49869817  0.17108778    -0.02360
C363        C  0.79007244  0.49820469  0.17746540     0.06250
C364        C  0.77866505  0.49546769  0.15941092     0.04350
H365        H  0.82443285  0.50108690  0.18091388     0.09450
H366        H  0.76182842  0.49442722  0.15805009     0.08290
C367        C  0.72634364  0.51336186  0.00351739     0.04320
C368        C  0.74136095  0.51378572  0.01946845    -0.11830
C369        C  0.74117185  0.49868570  0.03535489     0.01820
C370        C  0.72567394  0.48317871  0.03532586    -0.10360
C371        C  0.71053367  0.48263028  0.01941199     0.04310
C372        C  0.71101152  0.49772847  0.00349673    -0.09780
H373        H  0.75323120  0.52587195  0.01947843     0.09900
H374        H  0.72544029  0.47153903  0.04764323     0.07430
H375        H  0.69941909  0.49738276  0.99111790     0.07280
N376        N  0.64219210  0.36810093  0.02022236    -0.26100
N377        N  0.66071610  0.37549831  0.02578696    -0.33960
C378        C  0.67483952  0.36006551  0.02546743     0.02240
C379        C  0.66508380  0.34186387  0.01929625     0.08260
C380        C  0.64423849  0.34738604  0.01631067    -0.04840
H381        H  0.69128036  0.36219065  0.02887397     0.08930
H382        H  0.63177173  0.33736087  0.01077685     0.10130
Cu383      Cu  0.66868725  0.40632907  0.03010600     0.44170
Cu384      Cu  0.61593119  0.38758774  0.01648909     0.41990
Cu385      Cu  0.63460906  0.44088158  0.00664846     0.43880
N386        N  0.67729938  0.43665946  0.02401919    -0.33490
N387        N  0.66467293  0.44943785  0.01389194    -0.27740
C388        C  0.67440559  0.46775530  0.01073794    -0.03840
C389        C  0.69423517  0.46636444  0.01936278     0.08370
C390        C  0.69554180  0.44639584  0.02768153     0.02170
H391        H  0.66741017  0.48113963  0.00306884     0.09820
H392        H  0.70886925  0.43927366  0.03533205     0.08900
N393        N  0.60371852  0.43268203  0.00934400    -0.34940
N394        N  0.59625560  0.41379636  0.01337897    -0.27120
C395        C  0.57542326  0.41551102  0.01665648    -0.02360
C396        C  0.56992803  0.43650272  0.01487168     0.06250
C397        C  0.58823464  0.44673210  0.01012200     0.04350
H398        H  0.56530494  0.40271082  0.02111217     0.09450
H399        H  0.59036652  0.46342377  0.00821362     0.08290
N400        N  0.71999359  0.58233042  0.88850357    -0.26100
N401        N  0.71916102  0.56278399  0.89529671    -0.33960
C402        C  0.72075994  0.54964134  0.87908461     0.02240
C403        C  0.72265295  0.56124089  0.86104076     0.08260
C404        C  0.72191037  0.58199224  0.86744444    -0.04840
H405        H  0.72091477  0.53275872  0.88043363     0.08930
H406        H  0.72351239  0.59572459  0.85767848     0.10130
Cu407      Cu  0.71805777  0.55316438  0.92591676     0.44170
Cu408      Cu  0.72051774  0.60801424  0.90884090     0.41990
Cu409      Cu  0.73341244  0.59015921  0.96214925     0.43880
N410        N  0.72306244  0.54538186  0.95665373    -0.33490
N411        N  0.73006276  0.55926040  0.97021234    -0.27740
C412        C  0.73254454  0.55004537  0.98892834    -0.03840
C413        C  0.72664757  0.52930861  0.98696026     0.08370
C414        C  0.72069606  0.52687100  0.96627728     0.02170
H415        H  0.73760890  0.55800321  0.00300546     0.09820
H416        H  0.71525649  0.51271866  0.95872874     0.08900
N417        N  0.72837120  0.62074950  0.95367895    -0.34940
N418        N  0.72316431  0.62773304  0.93487997    -0.27120
C419        C  0.71943481  0.64850188  0.93628167    -0.02360
C420        C  0.72219899  0.65455831  0.95700551     0.06250
C421        C  0.72802609  0.63655979  0.96738244     0.04350
H422        H  0.71447330  0.65827070  0.92336398     0.09450
H423        H  0.73157953  0.63490105  0.98386400     0.08290
N424        N  0.31412626  0.25296203  0.13849826    -0.26100
N425        N  0.29497171  0.25663678  0.14537673    -0.33960
C426        C  0.28142762  0.25607654  0.12941342     0.02240
C427        C  0.29224763  0.25195512  0.11130681     0.08260
C428        C  0.31308995  0.25022217  0.11747773    -0.04840
H429        H  0.26470187  0.25807329  0.13100018     0.08930
H430        H  0.32627858  0.24642479  0.10760573     0.10130
Cu431      Cu  0.28595607  0.26013596  0.17590328     0.44170
Cu432      Cu  0.33972416  0.25037125  0.15933400     0.41990
Cu433      Cu  0.32080756  0.24569649  0.21423481     0.43880
N434        N  0.27662873  0.25671877  0.20632390    -0.33490
N435        N  0.28964437  0.25013970  0.22090959    -0.27740
C436        C  0.27916245  0.24781935  0.23896602    -0.03840
C437        C  0.25851098  0.25338208  0.23541847     0.08370
C438        C  0.25748337  0.25897048  0.21453920     0.02170
H439        H  0.28609120  0.24270416  0.25356057     0.09820
H440        H  0.24377319  0.26372693  0.20579921     0.08900
N441        N  0.35174387  0.24666544  0.20533654    -0.34940
N442        N  0.35918236  0.24837477  0.18607012    -0.27120
C443        C  0.38029080  0.24954872  0.18730987    -0.02360
C444        C  0.38610185  0.24885912  0.20831912     0.06250
C445        C  0.36756799  0.24690475  0.21909236     0.04350
H446        H  0.39056364  0.25147539  0.17402114     0.09450
H447        H  0.36561744  0.24592776  0.23588549     0.08290
C448        C  0.20811307  0.26746086  0.26291552     0.04320
C449        C  0.22472177  0.26755346  0.24859838    -0.11830
C450        C  0.24114370  0.25312548  0.25047710     0.01820
C451        C  0.24073265  0.23829414  0.26659469    -0.10360
C452        C  0.22420339  0.23803535  0.28091602     0.04310
C453        C  0.20806737  0.25273503  0.27919478    -0.09780
H454        H  0.22492741  0.27886075  0.23598549     0.09900
H455        H  0.25317730  0.22685135  0.26794028     0.07430
H456        H  0.19539596  0.25246159  0.29040482     0.07280
N457        N  0.09297105  0.33643731  0.26749330    -0.26100
N458        N  0.10000062  0.31730818  0.27124115    -0.33960
C459        C  0.08395454  0.30393189  0.27197488     0.02240
C460        C  0.06572525  0.31484612  0.26844792     0.08260
C461        C  0.07188656  0.33555279  0.26586604    -0.04840
H462        H  0.08559133  0.28719920  0.27403265     0.08930
H463        H  0.06195968  0.34869298  0.26192106     0.10130
Cu464      Cu  0.13065667  0.30775878  0.27171595     0.44170
Cu465      Cu  0.11321900  0.36183857  0.26238124     0.41990
Cu466      Cu  0.16386912  0.34099699  0.24543334     0.43880
N467        N  0.16059388  0.29888899  0.26433621    -0.33490
N468        N  0.17291021  0.31125313  0.25343001    -0.27740
C469        C  0.19156782  0.30198210  0.25097172    -0.03840
C470        C  0.19090760  0.28270774  0.26086329     0.08370
C471        C  0.17094407  0.28124641  0.26913042     0.02170
H472        H  0.20481501  0.30915645  0.24331238     0.09820
H473        H  0.16439986  0.26844048  0.27803190     0.08900
N474        N  0.15714790  0.37222332  0.24853520    -0.34940
N475        N  0.13951234  0.38038375  0.25563030    -0.27120
C476        C  0.14270262  0.40101980  0.25912177    -0.02360
C477        C  0.16335314  0.40570223  0.25415155     0.06250
C478        C  0.17180479  0.38709386  0.24735576     0.04350
H479        H  0.13135523  0.41146479  0.26608195     0.09450
H480        H  0.18790747  0.38419245  0.24308267     0.08290
N481        N  0.22234242  0.12210071  0.34793790    -0.26100
N482        N  0.22424822  0.12947325  0.32868316    -0.33960
C483        C  0.22419879  0.11363149  0.31497704     0.02240
C484        C  0.22239590  0.09518852  0.32590372     0.08260
C485        C  0.22142197  0.10098704  0.34685531    -0.04840
H486        H  0.22550191  0.11545407  0.29818815     0.08930
H487        H  0.21967414  0.09070326  0.36018598     0.10130
Cu488      Cu  0.22649077  0.16033768  0.32038568     0.44170
Cu489      Cu  0.21991552  0.14191243  0.37410525     0.41990
Cu490      Cu  0.21442567  0.19737115  0.35802930     0.43880
N491        N  0.22468451  0.19150130  0.31325360    -0.33490
N492        N  0.21887161  0.20552960  0.32720499    -0.27740
C493        C  0.21774308  0.22438349  0.31795912    -0.03840
C494        C  0.22345435  0.22193772  0.29723029     0.08370
C495        C  0.22778271  0.20091914  0.29476618     0.02170
H496        H  0.21345057  0.23877167  0.32578805     0.09820
H497        H  0.23230321  0.19297393  0.28051466     0.08900
N498        N  0.21553577  0.18697286  0.38852965    -0.34940
N499        N  0.21737088  0.16731886  0.39488594    -0.27120
C500        C  0.21860837  0.16725381  0.41602339    -0.02360
C501        C  0.21779194  0.18783070  0.42295682     0.06250
C502        C  0.21586586  0.19976856  0.40513707     0.04350
H503        H  0.22083960  0.15341593  0.42552449     0.09450
H504        H  0.21525704  0.21667203  0.40424416     0.08290
C505        C  0.24098219  0.73421036  0.51692302     0.03470
C506        C  0.24007139  0.75010801  0.53231399     0.03470
C507        C  0.22391779  0.76528303  0.53161033     0.03470
C508        C  0.20842704  0.76426089  0.51580868     0.03470
C509        C  0.20937749  0.74844038  0.50039442     0.03470
C510        C  0.22536574  0.73319017  0.50124650     0.03470
N511        N  0.09378919  0.83622301  0.75921960    -0.26100
N512        N  0.10008814  0.81648602  0.75865548    -0.33960
C513        C  0.08351070  0.80379645  0.75951984     0.02240
C514        C  0.06568005  0.81578143  0.76115457     0.08260
C515        C  0.07269025  0.83638719  0.76074038    -0.04840
H516        H  0.08453719  0.78691579  0.76047465     0.08930
H517        H  0.06335822  0.85033767  0.76293823     0.10130
Cu518      Cu  0.13027360  0.80554133  0.76055333     0.44170
Cu519      Cu  0.11472555  0.86160075  0.75979815     0.41990
Cu520      Cu  0.16841534  0.84220026  0.75381188     0.43880
N521        N  0.16128114  0.79725179  0.76189214    -0.33490
N522        N  0.17582389  0.81132749  0.75814586    -0.27740
C523        C  0.19467216  0.80217808  0.75882550    -0.03840
C524        C  0.19178428  0.78126507  0.76348450     0.08370
C525        C  0.17040655  0.77861121  0.76540889     0.02170
H526        H  0.20935201  0.81016941  0.75624037     0.09820
H527        H  0.16211190  0.76416975  0.76840326     0.08900
N528        N  0.16040722  0.87309354  0.75678773    -0.34940
N529        N  0.14140175  0.88082467  0.75943590    -0.27120
C530        C  0.14313366  0.90170129  0.76256606    -0.02360
C531        C  0.16424809  0.90695298  0.76213934     0.06250
C532        C  0.17452881  0.88843039  0.75826472     0.04350
H533        H  0.13014358  0.91209697  0.76564608     0.09450
H534        H  0.19123124  0.88609627  0.75694626     0.08290
C535        C  0.22378342  0.73452427  0.78067564     0.04320
C536        C  0.20791767  0.74970451  0.77996059    -0.11830
C537        C  0.20807381  0.76511752  0.76436766     0.01820
C538        C  0.22404284  0.76528968  0.74945387    -0.10360
C539        C  0.23980998  0.75011443  0.74985613     0.04310
C540        C  0.23964509  0.73475053  0.76552514    -0.09780
H541        H  0.19555325  0.74960453  0.79153082     0.09900
H542        H  0.22414448  0.77730271  0.73748507     0.07430
H543        H  0.25186942  0.72301745  0.76597787     0.07280
N544        N  0.30968521  0.75449925  0.63613105    -0.26100
N545        N  0.29081388  0.75894025  0.64335528    -0.33960
C546        C  0.27694676  0.75855343  0.62765177     0.02240
C547        C  0.28720161  0.75349889  0.60939388     0.08260
C548        C  0.30809532  0.75125823  0.61522909    -0.04840
H549        H  0.26035745  0.76121279  0.62960036     0.08930
H550        H  0.32094891  0.74671531  0.60522943     0.10130
Cu551      Cu  0.28222719  0.76206970  0.67416895     0.44170
Cu552      Cu  0.33587052  0.75152471  0.65613458     0.41990
Cu553      Cu  0.31739595  0.74278932  0.70997894     0.43880
N554        N  0.27351432  0.75585054  0.70445805    -0.33490
N555        N  0.28669578  0.74736462  0.71785734    -0.27740
C556        C  0.27684482  0.74380319  0.73605013    -0.03840
C557        C  0.25637141  0.75048821  0.73390455     0.08370
C558        C  0.25480430  0.75805250  0.71364510     0.02170
H559        H  0.28417244  0.73729733  0.74987397     0.09820
H560        H  0.24105032  0.76432771  0.70600608     0.08900
N561        N  0.34817710  0.74577470  0.70158946    -0.34940
N562        N  0.35564094  0.74910632  0.68256695    -0.27120
C563        C  0.37660302  0.75174215  0.68417847    -0.02360
C564        C  0.38216392  0.75030897  0.70522679     0.06250
C565        C  0.36374136  0.74641992  0.71558378     0.04350
H566        H  0.38685588  0.75526510  0.67120524     0.09450
H567        H  0.36165530  0.74459968  0.73229145     0.08290
N568        N  0.22705833  0.62071978  0.85150951    -0.26100
N569        N  0.22966465  0.62746631  0.83210763    -0.33960
C570        C  0.22844767  0.61131916  0.81881506     0.02240
C571        C  0.22487415  0.59325585  0.83007205     0.08260
C572        C  0.22428066  0.59972048  0.85089109    -0.04840
H573        H  0.23014907  0.61271112  0.80202625     0.08930
H574        H  0.22159576  0.58999383  0.86447734     0.10130
Cu575      Cu  0.23305973  0.65809894  0.82272871     0.44170
Cu576      Cu  0.22648175  0.64131133  0.87726143     0.41990
Cu577      Cu  0.21679094  0.69509339  0.85884578     0.43880
N578        N  0.22827915  0.68881031  0.81433246    -0.33490
N579        N  0.22075776  0.70256334  0.82773260    -0.27740
C580        C  0.21778250  0.72090905  0.81787980    -0.03840
C581        C  0.22391860  0.71851768  0.79724955     0.08370
C582        C  0.23054857  0.69796836  0.79555524     0.02170
H583        H  0.21207032  0.73501833  0.82529286     0.09820
H584        H  0.23617724  0.69013208  0.78164647     0.08900
N585        N  0.22063628  0.68666313  0.88977186    -0.34940
N586        N  0.22484601  0.66770360  0.89696708    -0.27120
C587        C  0.22810073  0.66911145  0.91785929    -0.02360
C588        C  0.22598055  0.68998046  0.92388358     0.06250
C589        C  0.22103645  0.70041351  0.90558303     0.04350
H590        H  0.23223409  0.65602817  0.92777932     0.09450
H591        H  0.21797387  0.71695036  0.90369574     0.08290
C592        C  0.72763851  0.76183190  0.53753044     0.03470
C593        C  0.71218877  0.76426510  0.52156151     0.03470
C594        C  0.71051322  0.74956216  0.50537161     0.03470
C595        C  0.72539909  0.73369684  0.50356347     0.03470
C596        C  0.74058452  0.73058706  0.51944272     0.03470
C597        C  0.74177411  0.74402921  0.53763154     0.03470
N598        N  0.85724366  0.16258575  0.26148163    -0.26100
N599        N  0.84900406  0.18140481  0.25910718    -0.33960
C600        C  0.86393732  0.19592618  0.25958381     0.02240
C601        C  0.88290847  0.18630414  0.26285083     0.08260
C602        C  0.87821655  0.16494612  0.26368929    -0.04840
H603        H  0.86091406  0.21250694  0.25795974     0.08930
H604        H  0.88907342  0.15224191  0.26642230     0.10130
Cu605      Cu  0.81816255  0.18912534  0.25822493     0.44170
Cu606      Cu  0.83779874  0.13583573  0.26232084     0.41990
Cu607      Cu  0.78225670  0.15373802  0.27173578     0.43880
N608        N  0.78803580  0.19815049  0.26293390    -0.33490
N609        N  0.77390949  0.18458811  0.26915987    -0.27740
C610        C  0.75547861  0.19442567  0.27143163    -0.03840
C611        C  0.75843511  0.21523309  0.26614287     0.08370
C612        C  0.77926124  0.21705866  0.26088167     0.02170
H613        H  0.74101406  0.18693653  0.27597228     0.09820
H614        H  0.78746797  0.23105423  0.25608122     0.08900
N615        N  0.79199066  0.12354157  0.26688110    -0.34940
N616        N  0.81105293  0.11634684  0.26311331    -0.27120
C617        C  0.80957830  0.09545086  0.25976883    -0.02360
C618        C  0.78861659  0.08964082  0.26129047     0.06250
C619        C  0.77822541  0.10788388  0.26600076     0.04350
H620        H  0.82267550  0.08535655  0.25619302     0.09450
H621        H  0.76167136  0.10979990  0.26885061     0.08290
C622        C  0.72939159  0.26401531  0.25033185     0.04320
C623        C  0.71456535  0.26544422  0.26640483    -0.11830
C624        C  0.71382362  0.25020823  0.28217540     0.01820
C625        C  0.72796014  0.23345710  0.28176767    -0.10360
C626        C  0.74290521  0.23207418  0.26589874     0.04310
C627        C  0.74353594  0.24731158  0.25016713    -0.09780
H628        H  0.70366240  0.27842154  0.26667417     0.09900
H629        H  0.72752794  0.22162190  0.29390507     0.07430
H630        H  0.75518352  0.24627110  0.23791660     0.07280
N631        N  0.73130681  0.37993024  0.18267417    -0.26100
N632        N  0.72818542  0.37205091  0.20155631    -0.33960
C633        C  0.72799572  0.38736934  0.21578552     0.02240
C634        C  0.73123067  0.40617475  0.20582730     0.08260
C635        C  0.73305449  0.40100399  0.18466080    -0.04840
H636        H  0.72580656  0.38484808  0.23238487     0.08930
H637        H  0.73604031  0.41165047  0.17185016     0.10130
Cu638      Cu  0.72587205  0.34114660  0.20944358     0.44170
Cu639      Cu  0.73373840  0.36020730  0.15607054     0.41990
Cu640      Cu  0.73825185  0.30435146  0.17274812     0.43880
N641        N  0.72867448  0.31032965  0.21748300    -0.33490
N642        N  0.73443505  0.29618817  0.20365792    -0.27740
C643        C  0.73577295  0.27746142  0.21312423    -0.03840
C644        C  0.73035877  0.28011954  0.23394679     0.08370
C645        C  0.72596174  0.30117332  0.23616335     0.02170
H646        H  0.73985779  0.26298658  0.20534322     0.09820
H647        H  0.72142448  0.30930203  0.25030293     0.08900
N648        N  0.73626618  0.31455991  0.14222232    -0.34940
N649        N  0.73479814  0.33413715  0.13549963    -0.27120
C650        C  0.73285629  0.33366441  0.11436505    -0.02360
C651        C  0.73275974  0.31285093  0.10787638     0.06250
C652        C  0.73499858  0.30138527  0.12596412     0.04350
H653        H  0.73085014  0.34732713  0.10456654     0.09450
H654        H  0.73534564  0.28450315  0.12729684     0.08290
N655        N  0.64671619  0.24617235  0.39780643    -0.26100
N656        N  0.66588028  0.24301637  0.39072234    -0.33960
C657        C  0.67940385  0.24314651  0.40672797     0.02240
C658        C  0.66848004  0.24666730  0.42496794     0.08260
C659        C  0.64768073  0.24829857  0.41882828    -0.04840
H660        H  0.69612782  0.24126137  0.40504835     0.08930
H661        H  0.63440762  0.25164867  0.42874661     0.10130
Cu662      Cu  0.67469690  0.24158772  0.35988227     0.44170
Cu663      Cu  0.62085596  0.24912876  0.37783897     0.41990
Cu664      Cu  0.63870818  0.26249991  0.32495815     0.43880
N665        N  0.68246825  0.24809279  0.32943715    -0.33490
N666        N  0.66919103  0.25720310  0.31652926    -0.27740
C667        C  0.67835829  0.25981627  0.29782982    -0.03840
C668        C  0.69840620  0.25178539  0.29911438     0.08370
C669        C  0.70051347  0.24450745  0.31940152     0.02170
H670        H  0.67068902  0.26620211  0.28413327     0.09820
H671        H  0.71407483  0.23712605  0.32636334     0.08900
N672        N  0.60803439  0.25789670  0.33319124    -0.34940
N673        N  0.60101941  0.25259598  0.35192305    -0.27120
C674        C  0.58029446  0.24875594  0.35037494    -0.02360
C675        C  0.57432529  0.25150386  0.32962368     0.06250
C676        C  0.59230090  0.25742751  0.31936647     0.04350
H677        H  0.57054483  0.24347876  0.36314065     0.09450
H678        H  0.59402405  0.26066038  0.30283435     0.08290
C679        C  0.46389316  0.24782126  0.25422851     0.03470
C680        C  0.48000255  0.26284306  0.25261792     0.03470
C681        C  0.49628009  0.26315376  0.26755982     0.03470
C682        C  0.49710091  0.24786055  0.28345618     0.03470
C683        C  0.48112457  0.23273939  0.28504640     0.03470
C684        C  0.46463004  0.23255532  0.27025171     0.03470
C685        C  0.72862161  0.23512815  0.99896669     0.03470
C686        C  0.71300411  0.25069065  0.99983554     0.03470
C687        C  0.71364159  0.26611106  0.01569239     0.03470
C688        C  0.72960847  0.26557818  0.03105621     0.03470
C689        C  0.74509350  0.24981993  0.03013341     0.03470
C690        C  0.74442440  0.23442233  0.01431043     0.03470
N691        N  0.06018264  0.88101293  0.51272007    -0.26100
N692        N  0.04143039  0.87356760  0.51716137    -0.33960
C693        C  0.02745160  0.88910251  0.51725506     0.02240
C694        C  0.03750833  0.90753028  0.51247185     0.08260
C695        C  0.05843105  0.90195290  0.50991939    -0.04840
H696        H  0.01094870  0.88692995  0.52021878     0.08930
H697        H  0.07119334  0.91216943  0.50560698     0.10130
Cu698      Cu  0.03332323  0.84275973  0.51989026     0.44170
Cu699      Cu  0.08613503  0.86092583  0.50964985     0.41990
Cu700      Cu  0.06746380  0.80652586  0.49989868     0.43880
N701        N  0.02404428  0.81273470  0.51396153    -0.33490
N702        N  0.03665310  0.79898412  0.50524102    -0.27740
C703        C  0.02628875  0.78088206  0.50249863    -0.03840
C704        C  0.00614675  0.78355841  0.51000978     0.08370
C705        C  0.00529368  0.80397922  0.51710660     0.02170
H706        H  0.03307535  0.76674189  0.49612832     0.09820
H707        H  0.99202001  0.81199781  0.52386117     0.08900
N708        N  0.09823502  0.81529858  0.50373014    -0.34940
N709        N  0.10553241  0.83430059  0.50767764    -0.27120
C710        C  0.12631893  0.83273587  0.51141728    -0.02360
C711        C  0.13203658  0.81176198  0.51002019     0.06250
C712        C  0.11383457  0.80138613  0.50495067     0.04350
H713        H  0.13630069  0.84570511  0.51574111     0.09450
H714        H  0.11185994  0.78470425  0.50281229     0.08290
C715        C  0.95764087  0.75503173  0.52762560     0.04320
C716        C  0.97416768  0.76933240  0.52677752    -0.11830
C717        C  0.98921738  0.76800671  0.51095978     0.01820
C718        C  0.98778391  0.75201006  0.49604974    -0.10360
C719        C  0.97136622  0.73747195  0.49687754     0.04310
C720        C  0.95624546  0.73906127  0.51266142    -0.09780
H721        H  0.97520423  0.78160634  0.53843866     0.09900
H722        H  0.99940019  0.75088433  0.48378251     0.07430
H723        H  0.94347153  0.72794169  0.51329835     0.07280
N724        N  0.84622138  0.76147721  0.60245887    -0.26100
N725        N  0.85168476  0.76267846  0.58252485    -0.33960
C726        C  0.83464827  0.76142314  0.57045335     0.02240
C727        C  0.81738881  0.75880633  0.58305866     0.08260
C728        C  0.82521619  0.75908018  0.60339579    -0.04840
H729        H  0.83503658  0.76066460  0.55353232     0.08930
H730        H  0.81656811  0.75612961  0.61762523     0.10130
Cu731      Cu  0.88149313  0.76154958  0.57056871     0.44170
Cu732      Cu  0.86837067  0.76130585  0.62679923     0.41990
Cu733      Cu  0.92136193  0.76886767  0.60567958     0.43880
N734        N  0.91216983  0.75983249  0.56123417    -0.33490
N735        N  0.92733351  0.76373561  0.57465393    -0.27740
C736        C  0.94579357  0.76235070  0.56487301    -0.03840
C737        C  0.94199411  0.75704927  0.54424910     0.08370
C738        C  0.92049197  0.75550173  0.54241367     0.02170
H739        H  0.96083125  0.76477025  0.57227971     0.09820
H740        H  0.91158413  0.75207006  0.52840980     0.08900
N741        N  0.91436928  0.76652146  0.63683412    -0.34940
N742        N  0.89570102  0.76310984  0.64502516    -0.27120
C743        C  0.89806508  0.76052130  0.66588137    -0.02360
C744        C  0.91922436  0.76223606  0.67073895     0.06250
C745        C  0.92890261  0.76618387  0.65191874     0.04350
H746        H  0.88546220  0.75692069  0.67655183     0.09450
H747        H  0.94544464  0.76832432  0.64917475     0.08290
N748        N  0.97545443  0.66650673  0.38299825    -0.26100
N749        N  0.97717422  0.68577098  0.39041289    -0.33960
C750        C  0.97693826  0.69956196  0.37469122     0.02240
C751        C  0.97503880  0.68887399  0.35612046     0.08260
C752        C  0.97431079  0.66779083  0.36181255    -0.04840
H753        H  0.97763953  0.71636311  0.37673455     0.08930
H754        H  0.97227689  0.65456044  0.35143781     0.10130
Cu755      Cu  0.97781642  0.69459087  0.42115467     0.44170
Cu756      Cu  0.97337995  0.64040711  0.40350520     0.41990
Cu757      Cu  0.96508702  0.65863664  0.45852893     0.43880
N758        N  0.97320203  0.70346973  0.45151815    -0.33490
N759        N  0.96721587  0.68995267  0.46585246    -0.27740
C760        C  0.96498684  0.69997097  0.48423011    -0.03840
C761        C  0.97008446  0.72080201  0.48111164     0.08370
C762        C  0.97522724  0.72245934  0.46019571     0.02170
H763        H  0.96087174  0.69252351  0.49885984     0.09820
H764        H  0.98014021  0.73637223  0.45190606     0.08900
N765        N  0.96877900  0.62789409  0.44942712    -0.34940
N766        N  0.97158143  0.62060498  0.43019716    -0.27120
C767        C  0.97409030  0.59955998  0.43150550    -0.02360
C768        C  0.97315131  0.59373341  0.45250939     0.06250
C769        C  0.96974564  0.61211425  0.46319312     0.04350
H770        H  0.97711922  0.58938775  0.41831469     0.09450
H771        H  0.96832683  0.61397743  0.47996935     0.08290
C772        C  0.97420166  0.98447523  0.52912340     0.03470
C773        C  0.98986971  0.98410191  0.51351621     0.03470
C774        C  0.99026082  0.99973034  0.49787235     0.03470
C775        C  0.97475434  0.01536442  0.49741391     0.03470
C776        C  0.95936147  0.01590972  0.51312769     0.03470
C777        C  0.95876384  0.00029526  0.52873589     0.03470
N778        N  0.85617426  0.00599979  0.59890229    -0.26100
N779        N  0.84887102  0.01020986  0.57996973    -0.33960
C780        C  0.86453818  0.00986846  0.56615400     0.02240
C781        C  0.88281059  0.00504695  0.57655258     0.08260
C782        C  0.87706037  0.00292181  0.59744261    -0.04840
H783        H  0.86253734  0.01217100  0.54948877     0.08930
H784        H  0.88706919  0.99841279  0.61035073     0.10130
Cu785      Cu  0.81800931  0.01245838  0.57133734     0.44170
Cu786      Cu  0.83629113  0.00282098  0.62486918     0.41990
Cu787      Cu  0.78245807  0.99255745  0.60664187     0.43880
N788        N  0.78790745  0.00551954  0.56256285    -0.33490
N789        N  0.77466895  0.99682089  0.57570895    -0.27740
C790        C  0.75656080  0.99300492  0.56573267    -0.03840
C791        C  0.75858947  0.99976177  0.54524086     0.08370
C792        C  0.77869910  0.00760965  0.54378549     0.02170
H793        H  0.74283740  0.98633338  0.57300564     0.09820
H794        H  0.78621355  0.01406005  0.53007414     0.08900
N795        N  0.79112783  0.99629621  0.63744232    -0.34940
N796        N  0.81016225  0.00021115  0.64462133    -0.27120
C797        C  0.80892796  0.00316359  0.66554942    -0.02360
C798        C  0.78809990  0.00130638  0.67149800     0.06250
C799        C  0.77745602  0.99682624  0.65326202     0.04350
H800        H  0.82204075  0.00707057  0.67553388     0.09450
H801        H  0.76081409  0.99434378  0.65148402     0.08290
C802        C  0.71188110  0.98314213  0.51279595     0.04320
C803        C  0.72718343  0.98362657  0.52855986    -0.11830
C804        C  0.74262975  0.99917397  0.52859820     0.01820
C805        C  0.74267171  0.01432111  0.51274728    -0.10360
C806        C  0.72751024  0.01393822  0.49690123     0.04310
C807        C  0.71218396  0.99828450  0.49692214    -0.09780
H808        H  0.72701100  0.97197085  0.54086222     0.09900
H809        H  0.75445331  0.02649389  0.51276005     0.07430
H810        H  0.70041013  0.99801625  0.48470378     0.07280
N811        N  0.72378350  0.08442101  0.38223754    -0.26100
N812        N  0.72168912  0.06496866  0.38911932    -0.33960
C813        C  0.72175319  0.05162697  0.37295879     0.02240
C814        C  0.72379635  0.06283065  0.35472940     0.08260
C815        C  0.72499715  0.08369288  0.36103806    -0.04840
H816        H  0.72091914  0.03477580  0.37445026     0.08930
H817        H  0.72739957  0.09715330  0.35106493     0.10130
Cu818      Cu  0.72052374  0.05512569  0.41970568     0.44170
Cu819      Cu  0.72634254  0.11040412  0.40297686     0.41990
Cu820      Cu  0.73347207  0.09152662  0.45693412     0.43880
N821        N  0.72433344  0.04666228  0.45047357    -0.33490
N822        N  0.73036797  0.06050791  0.46451018    -0.27740
C823        C  0.73260156  0.05104282  0.48312306    -0.03840
C824        C  0.72751300  0.03016070  0.48061269     0.08370
C825        C  0.72228223  0.02789129  0.45970570     0.02170
H826        H  0.73708918  0.05887749  0.49746233     0.09820
H827        H  0.71766923  0.01366888  0.45174669     0.08900
N828        N  0.73128282  0.12250115  0.44875852    -0.34940
N829        N  0.72881991  0.13022250  0.42967308    -0.27120
C830        C  0.72722896  0.15134287  0.43139042    -0.02360
C831        C  0.72842180  0.15671814  0.45254373     0.06250
C832        C  0.73102008  0.13800345  0.46284971     0.04350
H833        H  0.72463501  0.16189021  0.41839765     0.09450
H834        H  0.73232311  0.13572349  0.47958933     0.08290
N835        N  0.64311501  0.86890260  0.52035857    -0.26100
N836        N  0.66194154  0.87656272  0.52423975    -0.33960
C837        C  0.67602490  0.86108249  0.52450455     0.02240
C838        C  0.66599598  0.84243190  0.52046361     0.08260
C839        C  0.64496900  0.84788628  0.51813025    -0.04840
H840        H  0.69256480  0.86343008  0.52717206     0.08930
H841        H  0.63215834  0.83748313  0.51438752     0.10130
Cu842      Cu  0.66998081  0.90753978  0.52614865     0.44170
Cu843      Cu  0.61668072  0.88866519  0.51716917     0.41990
Cu844      Cu  0.63445770  0.94242297  0.50548715     0.43880
N845        N  0.67844997  0.93759329  0.51894855    -0.33490
N846        N  0.66526177  0.95061488  0.50990457    -0.27740
C847        C  0.67507745  0.96878283  0.50602565    -0.03840
C848        C  0.69548685  0.96699036  0.51311750     0.08370
C849        C  0.69706964  0.94698070  0.52122168     0.02170
H850        H  0.66774145  0.98241154  0.49914436     0.09820
H851        H  0.71075148  0.93966756  0.52801757     0.08900
N852        N  0.60370816  0.93377773  0.50945247    -0.34940
N853        N  0.59658960  0.91488621  0.51408765    -0.27120
C854        C  0.57567716  0.91638603  0.51716604    -0.02360
C855        C  0.56968078  0.93723675  0.51460310     0.06250
C856        C  0.58792265  0.94754586  0.50956071     0.04350
H857        H  0.56572510  0.90345696  0.52161826     0.09450
H858        H  0.58976055  0.96407361  0.50639760     0.08290
C859        C  0.45694119  0.01075065  0.51348673     0.03470
C860        C  0.45938881  0.99578386  0.52975949     0.03470
C861        C  0.47576491  0.98125237  0.52936007     0.03470
C862        C  0.49121634  0.98275563  0.51399307     0.03470
C863        C  0.48927844  0.99756668  0.49742735     0.03470
C864        C  0.47167639  0.01199169  0.49620890     0.03470
C865        C  0.47851416  0.01486285  0.00105036     0.03470
C866        C  0.46255542  0.01643533  0.01589674     0.03470
C867        C  0.45974358  0.00062223  0.03128607     0.03470
C868        C  0.47343207  0.98252255  0.03261472     0.03470
C869        C  0.49085687  0.98269763  0.01800700     0.03470
C870        C  0.49326194  0.99876379  0.00266837     0.03470
C871        C  0.72234897  0.73261220  0.00176117     0.03470
C872        C  0.70705041  0.74841543  0.00082181     0.03470
C873        C  0.70696101  0.76455410  0.01580926     0.03470
C874        C  0.72271348  0.76546329  0.03119479     0.03470
C875        C  0.73815192  0.74971948  0.03213705     0.03470
C876        C  0.73815845  0.73345154  0.01719765     0.03470
N877        N  0.81499441  0.13190896  0.00732840    -0.26100
N878        N  0.79608759  0.12469197  0.00291704    -0.33960
C879        C  0.78224195  0.14038858  0.00357688     0.02240
C880        C  0.79263637  0.15856539  0.00863671     0.08260
C881        C  0.81349823  0.15276214  0.01071911    -0.04840
H882        H  0.76557883  0.13849936  0.00129556     0.08930
H883        H  0.82636071  0.16270144  0.01543655     0.10130
Cu884      Cu  0.78754190  0.09386230  0.99959069     0.44170
Cu885      Cu  0.84105775  0.11209076  0.01090142     0.41990
Cu886      Cu  0.82205462  0.05919112  0.02238450     0.43880
N887        N  0.77904114  0.06349274  0.00574984    -0.33490
N888        N  0.79190551  0.05060798  0.01542979    -0.27740
C889        C  0.78219299  0.03230532  0.01875869    -0.03840
C890        C  0.76209668  0.03381848  0.01076978     0.08370
C891        C  0.76065464  0.05385169  0.00259509     0.02170
H892        H  0.78934561  0.01889514  0.02623141     0.09820
H893        H  0.74713476  0.06111700  0.99543835     0.08900
N894        N  0.85302295  0.06742046  0.02062332    -0.34940
N895        N  0.86061548  0.08602654  0.01567651    -0.27120
C896        C  0.88156100  0.08416132  0.01329026    -0.02360
C897        C  0.88705804  0.06334138  0.01666796     0.06250
C898        C  0.86855434  0.05344116  0.02150292     0.04350
H899        H  0.89181334  0.09671641  0.00846549     0.09450
H900        H  0.86630741  0.03697213  0.02471400     0.08290
C901        C  0.74564975  0.01766064  0.01124558     0.04320
C902        C  0.72942089  0.01786075  0.99642928    -0.11830
C903        C  0.71379897  0.00245217  0.99676571     0.01820
C904        C  0.71463685  0.98665669  0.01197384    -0.10360
C905        C  0.73068548  0.98640224  0.02692807     0.04310
C906        C  0.74608129  0.00195435  0.02656921    -0.09780
H907        H  0.72893278  0.03002894  0.98465731     0.09900
H908        H  0.70274749  0.97460150  0.01229189     0.07430
H909        H  0.75841476  0.00173758  0.03821085     0.07280
N910        N  0.72365931  0.87146837  0.09581148    -0.26100
N911        N  0.72266888  0.87827496  0.07627520    -0.33960
C912        C  0.72290584  0.86196293  0.06314865     0.02240
C913        C  0.72400747  0.84387893  0.07480051     0.08260
C914        C  0.72427707  0.85035006  0.09552398    -0.04840
H915        H  0.72264154  0.86323932  0.04625740     0.08930
H916        H  0.72567425  0.84053792  0.10925508     0.10130
Cu917      Cu  0.72277391  0.90896244  0.06682538     0.44170
Cu918      Cu  0.72605478  0.89166897  0.12139309     0.41990
Cu919      Cu  0.73813263  0.94538355  0.10410106     0.43880
N920        N  0.72785046  0.93970135  0.05917458    -0.33490
N921        N  0.73479089  0.95331938  0.07304192    -0.27740
C922        C  0.73723670  0.97199298  0.06371078    -0.03840
C923        C  0.73130686  0.96992791  0.04296384     0.08370
C924        C  0.72542108  0.94924810  0.04062102     0.02170
H925        H  0.74223971  0.98612489  0.07159487     0.09820
H926        H  0.71991719  0.94166251  0.02650264     0.08900
N927        N  0.73443569  0.93622032  0.13479235    -0.34940
N928        N  0.72983274  0.91717386  0.14148874    -0.27120
C929        C  0.72703596  0.91791169  0.16242013    -0.02360
C930        C  0.72974405  0.93844941  0.16893764     0.06250
C931        C  0.73453780  0.94946824  0.15102331     0.04350
H932        H  0.72251195  0.90471027  0.17198949     0.09450
H933        H  0.73745543  0.96609655  0.14973348     0.08290
N934        N  0.64177315  0.00536668  0.88474809    -0.26100
N935        N  0.66021525  0.01136379  0.89201420    -0.33960
C936        C  0.67425598  0.01136176  0.87652848     0.02240
C937        C  0.66462128  0.00491352  0.85833182     0.08260
C938        C  0.64383966  0.00145871  0.86398708    -0.04840
H939        H  0.69061410  0.01513250  0.87863933     0.08930
H940        H  0.63147106  0.99560098  0.85400826     0.10130
Cu941      Cu  0.66836973  0.01549162  0.92282089     0.44170
Cu942      Cu  0.61581297  0.00122385  0.90488787     0.41990
Cu943      Cu  0.63575554  0.99088289  0.95795085     0.43880
N944        N  0.67818467  0.00855207  0.95261688    -0.33490
N945        N  0.66616797  0.99808213  0.96564423    -0.27740
C946        C  0.67682562  0.99432384  0.98338433    -0.03840
C947        C  0.69662532  0.00288154  0.98131536     0.08370
C948        C  0.69691208  0.01179695  0.96156294     0.02170
H949        H  0.67050316  0.98622846  0.99682259     0.09820
H950        H  0.70988392  0.01955102  0.95399239     0.08900
N951        N  0.60455659  0.99300460  0.95025802    -0.34940
N952        N  0.59661535  0.99749556  0.93164075    -0.27120
C953        C  0.57569910  0.00011385  0.93388978    -0.02360
C954        C  0.57054461  0.99735788  0.95494641     0.06250
C955        C  0.58930284  0.99264498  0.96456272     0.04350
H956        H  0.56519381  0.00454021  0.92135538     0.09450
H957        H  0.59191560  0.98961618  0.98101849     0.08290
C958        C  0.74310190  0.00149730  0.74957136     0.03470
C959        C  0.72728998  0.98612329  0.75017832     0.03470
C960        C  0.71215707  0.98635723  0.76627187     0.03470
C961        C  0.71328243  0.00166605  0.78221231     0.03470
C962        C  0.72937547  0.01687396  0.78174210     0.03470
C963        C  0.74452523  0.01652220  0.76566502     0.03470
N964        N  0.06258158  0.99768159  0.89544743    -0.26100
N965        N  0.04395755  0.00284539  0.88803030    -0.33960
C966        C  0.03021998  0.00382617  0.90373709     0.02240
C967        C  0.04033232  0.99882917  0.92216475     0.08260
C968        C  0.06100180  0.99523205  0.91641354    -0.04840
H969        H  0.01384120  0.00753468  0.90168356     0.08930
H970        H  0.07370909  0.99043332  0.92653551     0.10130
Cu971      Cu  0.03563961  0.00556768  0.85706604     0.44170
Cu972      Cu  0.08842105  0.99326374  0.87579652     0.41990
Cu973      Cu  0.07057848  0.98528636  0.82130728     0.43880
N974        N  0.02713448  0.00038409  0.82648033    -0.33490
N975        N  0.04008749  0.99159224  0.81309467    -0.27740
C976        C  0.03035163  0.98921650  0.79459212    -0.03840
C977        C  0.01023213  0.99702630  0.79651015     0.08370
C978        C  0.00874233  0.00398420  0.81697334     0.02170
H979        H  0.03755612  0.98278218  0.78069838     0.09820
H980        H  0.99524820  0.01084645  0.82451141     0.08900
N981        N  0.10134627  0.98743735  0.83063326    -0.34940
N982        N  0.10833645  0.99062352  0.84989801    -0.27120
C983        C  0.12926098  0.99347865  0.84904372    -0.02360
C984        C  0.13541474  0.99231325  0.82823668     0.06250
C985        C  0.11732758  0.98831444  0.81718160     0.04350
H986        H  0.13904409  0.99719670  0.86237072     0.09450
H987        H  0.11571762  0.98683912  0.80037934     0.08290
C988        C  0.97806024  0.98384790  0.74855107     0.04320
C989        C  0.99343469  0.98295976  0.76418613    -0.11830
C990        C  0.99393780  0.99796781  0.78018468     0.01820
C991        C  0.97878070  0.01384906  0.78053630    -0.10360
C992        C  0.96326365  0.01481757  0.76500977     0.04310
C993        C  0.96306689  0.99982452  0.74897634    -0.09780
H994        H  0.00499857  0.97056675  0.76388020     0.09900
H995        H  0.97902907  0.02542767  0.79291542     0.07430
H996        H  0.95117289  0.00047817  0.73689261     0.07280
N997        N  0.84888001  0.08461990  0.76355042    -0.26100
N998        N  0.85600756  0.06576016  0.75880815    -0.33960
C999        C  0.84010751  0.05216313  0.75824158     0.02240
C1000       C  0.82187373  0.06266519  0.76291597     0.08260
C1001       C  0.82790766  0.08335471  0.76600376    -0.04840
H1002       H  0.84187397  0.03556629  0.75536501     0.08930
H1003       H  0.81799419  0.09622784  0.77074125     0.10130
Cu1004     Cu  0.88688695  0.05705234  0.75642377     0.44170
Cu1005     Cu  0.86895680  0.11023344  0.76837066     0.41990
Cu1006     Cu  0.92264670  0.09159718  0.77812700     0.43880
N1007       N  0.91739296  0.04844159  0.76192011    -0.33490
N1008       N  0.93068791  0.06117998  0.77121972    -0.27740
C1009       C  0.94905525  0.05129747  0.77382654    -0.03840
C1010       C  0.94716352  0.03131699  0.76562824     0.08370
C1011       C  0.92684962  0.03005384  0.75820241     0.02170
H1012       H  0.96282199  0.05828960  0.78077381     0.09820
H1013       H  0.91934460  0.01667224  0.75103273     0.08900
N1014       N  0.91388212  0.12259526  0.77687162    -0.34940
N1015       N  0.89491385  0.12992172  0.77291819    -0.27120
C1016       C  0.89617567  0.15096433  0.77095358    -0.02360
C1017       C  0.91695002  0.15686915  0.77353098     0.06250
C1018       C  0.92753066  0.13846270  0.77741567     0.04350
H1019       H  0.88319800  0.16104272  0.76686879     0.09450
H1020       H  0.94418769  0.13656676  0.77973337     0.08290
N1021       N  0.97683606  0.86893003  0.67894581    -0.26100
N1022       N  0.97975918  0.87624672  0.69812304    -0.33960
C1023       C  0.97972947  0.86044758  0.71183731     0.02240
C1024       C  0.97681817  0.84206159  0.70108709     0.08260
C1025       C  0.97511627  0.84782697  0.68014940    -0.04840
H1026       H  0.98129766  0.86229224  0.72861076     0.08930
H1027       H  0.97212544  0.83759770  0.66698260     0.10130
Cu1028     Cu  0.98219678  0.90699928  0.70690745     0.44170
Cu1029     Cu  0.97408269  0.88905583  0.65289102     0.41990
Cu1030     Cu  0.96974850  0.94435993  0.67048070     0.43880
N1031       N  0.97959882  0.93786488  0.71518270    -0.33490
N1032       N  0.97373841  0.95211093  0.70147712    -0.27740
C1033       C  0.97215246  0.97072510  0.71113204    -0.03840
C1034       C  0.97752496  0.96792333  0.73195125     0.08370
C1035       C  0.98219097  0.94689198  0.73397509     0.02170
H1036       H  0.96781875  0.98521427  0.70350562     0.09820
H1037       H  0.98668883  0.93867776  0.74809515     0.08900
N1038       N  0.97093620  0.93468738  0.63977003    -0.34940
N1039       N  0.97227265  0.91520608  0.63277396    -0.27120
C1040       C  0.97352335  0.91586159  0.61162757    -0.02360
C1041       C  0.97330270  0.93671203  0.60539873     0.06250
C1042       C  0.97161685  0.94802829  0.62363425     0.04350
H1043       H  0.97527715  0.90230145  0.60163903     0.09450
H1044       H  0.97124539  0.96489609  0.62513787     0.08290
C1045       C  0.96279241  0.75249498  0.74955409     0.03470
C1046       C  0.96127470  0.73404147  0.76235640     0.03470
C1047       C  0.97494859  0.73370927  0.78028879     0.03470
C1048       C  0.98920666  0.75048158  0.78491572     0.03470
C1049       C  0.99032068  0.76913706  0.77228734     0.03470
C1050       C  0.97679015  0.76941983  0.75426207     0.03470
N1051       N  0.96822594  0.83344010  0.14256345    -0.26100
N1052       N  0.96511394  0.81403345  0.13601210    -0.33960
C1053       C  0.96584481  0.80097287  0.15238495     0.02240
C1054       C  0.96955850  0.81252499  0.17023555     0.08260
C1055       C  0.97080354  0.83313678  0.16354517    -0.04840
H1056       H  0.96432763  0.78414331  0.15125053     0.08930
H1057       H  0.97432816  0.84671625  0.17303417     0.10130
Cu1058     Cu  0.96265016  0.80441210  0.10533100     0.44170
Cu1059     Cu  0.97118162  0.85879142  0.12214596     0.41990
Cu1060     Cu  0.98279938  0.83981413  0.06934334     0.43880
N1061       N  0.96785529  0.79620223  0.07463481    -0.33490
N1062       N  0.97670025  0.80927728  0.06138347    -0.27740
C1063       C  0.97960345  0.79958045  0.04297419    -0.03840
C1064       C  0.97204341  0.77939373  0.04477041     0.08370
C1065       C  0.96465498  0.77776929  0.06504598     0.02170
H1066       H  0.98640870  0.80678864  0.02926552     0.09820
H1067       H  0.95801393  0.76408293  0.07245307     0.08900
N1068       N  0.98082565  0.87082662  0.07762407    -0.34940
N1069       N  0.97599609  0.87823646  0.09633189    -0.27120
C1070       C  0.97403060  0.89923365  0.09492669    -0.02360
C1071       C  0.97758206  0.90505358  0.07428506     0.06250
C1072       C  0.98202746  0.88662440  0.06395531     0.04350
H1073       H  0.96954269  0.90934378  0.10773946     0.09450
H1074       H  0.98546446  0.88465542  0.04749922     0.08290
C1075       C  0.95626855  0.73253954  0.01236146     0.04320
C1076       C  0.97304950  0.73128742  0.99841937    -0.11830
C1077       C  0.98946422  0.74572401  0.99943829     0.01820
C1078       C  0.98901479  0.76159022  0.01457907    -0.10360
C1079       C  0.97228493  0.76295490  0.02867672     0.04310
C1080       C  0.95591683  0.74841190  0.02749071    -0.09780
H1081       H  0.97335926  0.71896205  0.98678268     0.09900
H1082       H  0.00168650  0.77279787  0.01546258     0.07430
H1083       H  0.94301024  0.74938048  0.03840322     0.07280
N1084       N  0.06002009  0.74046399  0.88784067    -0.26100
N1085       N  0.04190029  0.73413092  0.89551410    -0.33960
C1086       C  0.02750489  0.73344007  0.88030829     0.02240
C1087       C  0.03657118  0.73970852  0.86183903     0.08260
C1088       C  0.05737932  0.74388038  0.86705251    -0.04840
H1089       H  0.01126707  0.72944176  0.88280908     0.08930
H1090       H  0.06932900  0.74995174  0.85675267     0.10130
Cu1091     Cu  0.03463392  0.73046581  0.92644691     0.44170
Cu1092     Cu  0.08630342  0.74547511  0.90757327     0.41990
Cu1093     Cu  0.06906579  0.74990800  0.96282101     0.43880
N1094       N  0.02529889  0.73716698  0.95630229    -0.33490
N1095       N  0.03812695  0.74562929  0.97004372    -0.27740
C1096       C  0.02751373  0.75010953  0.98761060    -0.03840
C1097       C  0.00693785  0.74404605  0.98461333     0.08370
C1098       C  0.00611383  0.73590564  0.96456744     0.02170
H1099       H  0.03430612  0.75705535  0.00149262     0.09820
H1100       H  0.99250887  0.73008441  0.95633114     0.08900
N1101       N  0.09969123  0.74919138  0.95323343    -0.34940
N1102       N  0.10667654  0.74798169  0.93375328    -0.27120
C1103       C  0.12785550  0.74733433  0.93451555    -0.02360
C1104       C  0.13407099  0.74782302  0.95542554     0.06250
C1105       C  0.11580284  0.74898936  0.96664596     0.04350
H1106       H  0.13790915  0.74586646  0.92099982     0.09450
H1107       H  0.11427264  0.74942240  0.98351022     0.08290
N1108       N  0.88713969  0.61839693  0.01000807    -0.26100
N1109       N  0.90609526  0.62571272  0.00611654    -0.33960
C1110       C  0.91993829  0.61001797  0.00662992     0.02240
C1111       C  0.90941354  0.59176527  0.01087376     0.08260
C1112       C  0.88855406  0.59746908  0.01282249    -0.04840
H1113       H  0.93663666  0.61189686  0.00468524     0.08930
H1114       H  0.87561926  0.58738244  0.01692723     0.10130
Cu1115     Cu  0.91436496  0.65652056  0.00270934     0.44170
Cu1116     Cu  0.86109936  0.63811732  0.01324707     0.41990
Cu1117     Cu  0.87813978  0.69333653  0.01743122     0.43880
N1118       N  0.92247550  0.68728189  0.00671583    -0.33490
N1119       N  0.90886038  0.70124054  0.01333831    -0.27740
C1120       C  0.91859861  0.71961079  0.01635736    -0.03840
C1121       C  0.93943358  0.71694873  0.01123244     0.08370
C1122       C  0.94133710  0.69625818  0.00514423     0.02170
H1123       H  0.91105989  0.73377218  0.02176324     0.09820
H1124       H  0.95546119  0.68812678  0.00060793     0.08900
N1125       N  0.84770821  0.68337756  0.01719259    -0.34940
N1126       N  0.84088522  0.66385357  0.01589149    -0.27120
C1127       C  0.81975361  0.66425911  0.01533540    -0.02360
C1128       C  0.81340229  0.68501820  0.01602304     0.06250
C1129       C  0.83147497  0.69654784  0.01721429     0.04350
H1130       H  0.80986337  0.65062231  0.01372274     0.09450
H1131       H  0.83279231  0.71342983  0.01764987     0.08290
C1132       C  0.96334976  0.01528185  0.01585486     0.03470
C1133       C  0.97926976  0.01617380  0.00059567     0.03470
C1134       C  0.99492864  0.00058289  0.00001508     0.03470
C1135       C  0.99533746  0.98481086  0.01541234     0.03470
C1136       C  0.97925535  0.98369960  0.03044189     0.03470
C1137       C  0.96342553  0.99906979  0.03087172     0.03470
C1138       C  0.99160900  0.50144759  0.00218700     0.03470
C1139       C  0.99078769  0.48598154  0.01800133     0.03470
C1140       C  0.97453449  0.48660028  0.03305421     0.03470
C1141       C  0.95883474  0.50218828  0.03180513     0.03470
C1142       C  0.95958800  0.51738712  0.01577116     0.03470
C1143       C  0.97572793  0.51677634  0.00077723     0.03470
N1144       N  0.97154418  0.63168507  0.85121089    -0.26100
N1145       N  0.97025322  0.62490429  0.83165936    -0.33960
C1146       C  0.97121282  0.64115413  0.81851089     0.02240
C1147       C  0.97308253  0.65919180  0.83009111     0.08260
C1148       C  0.97310042  0.65279172  0.85085055    -0.04840
H1149       H  0.97108808  0.63985597  0.80161665     0.08930
H1150       H  0.97500842  0.66259102  0.86453362     0.10130
Cu1151     Cu  0.96941084  0.59432483  0.82181946     0.44170
Cu1152     Cu  0.97321027  0.61129066  0.87690330     0.41990
Cu1153     Cu  0.98536493  0.55810835  0.85840323     0.43880
N1154       N  0.97460937  0.56370808  0.81368614    -0.33490
N1155       N  0.98182985  0.55014858  0.82744986    -0.27740
C1156       C  0.98447903  0.53153452  0.81808383    -0.03840
C1157       C  0.97844101  0.53355616  0.79737198     0.08370
C1158       C  0.97223618  0.55417396  0.79510190     0.02170
H1159       H  0.98975885  0.51747621  0.82592119     0.09820
H1160       H  0.96662122  0.56173250  0.78101478     0.08900
N1161       N  0.98144625  0.56639654  0.88923276    -0.34940
N1162       N  0.97664421  0.58517468  0.89653058    -0.27120
C1163       C  0.97372335  0.58362776  0.91743644    -0.02360
C1164       C  0.97657249  0.56283733  0.92323781     0.06250
C1165       C  0.98159737  0.55257813  0.90494806     0.04350
H1166       H  0.96913526  0.59645952  0.92748061     0.09450
H1167       H  0.98481657  0.53606362  0.90303254     0.08290
C1168       C  0.99324485  0.48547095  0.76645214     0.04320
C1169       C  0.99351498  0.50141982  0.78149169    -0.11830
C1170       C  0.97818721  0.51706276  0.78133852     0.01820
C1171       C  0.96251924  0.51674024  0.76598162    -0.10360
C1172       C  0.96206915  0.50082023  0.75088129     0.04310
C1173       C  0.97747713  0.48519766  0.75118007    -0.09780
H1174       H  0.00562862  0.50162693  0.79337532     0.09900
H1175       H  0.95064191  0.52883456  0.76583356     0.07430
H1176       H  0.97719893  0.47284189  0.73956112     0.07280
N1177       N  0.10787248  0.41624992  0.77138123    -0.26100
N1178       N  0.10057614  0.43537167  0.77454924    -0.33960
C1179       C  0.11634367  0.44908414  0.77429178     0.02240
C1180       C  0.13469997  0.43842404  0.77063263     0.08260
C1181       C  0.12885636  0.41749567  0.76908391    -0.04840
H1182       H  0.11441235  0.46577432  0.77638972     0.08930
H1183       H  0.13896049  0.40430520  0.76586207     0.10130
Cu1184     Cu  0.06983394  0.44427568  0.77671204     0.44170
Cu1185     Cu  0.08816229  0.39001091  0.76936879     0.41990
Cu1186     Cu  0.03353256  0.40771966  0.76252192     0.43880
N1187       N  0.03927362  0.45254576  0.77153306    -0.33490
N1188       N  0.02552096  0.43868371  0.76496538    -0.27740
C1189       C  0.00704528  0.44818254  0.76182098    -0.03840
C1190       C  0.00939844  0.46911391  0.76684852     0.08370
C1191       C  0.03004107  0.47134511  0.77296920     0.02170
H1192       H  0.99289643  0.44034277  0.75683006     0.09820
H1193       H  0.03783959  0.48556505  0.77783629     0.08900
N1194       N  0.04278048  0.37717273  0.76598800    -0.34940
N1195       N  0.06208253  0.37003194  0.76831576    -0.27120
C1196       C  0.06113005  0.34901176  0.77073902    -0.02360
C1197       C  0.04022250  0.34306776  0.77024959     0.06250
C1198       C  0.02923327  0.36130802  0.76713382     0.04350
H1199       H  0.07451291  0.33894966  0.77324171     0.09450
H1200       H  0.01244584  0.36300752  0.76581943     0.08290
N1201       N  0.89160732  0.49794893  0.63670580    -0.26100
N1202       N  0.91081755  0.49466607  0.64375263    -0.33960
C1203       C  0.92435740  0.49541201  0.62783904     0.02240
C1204       C  0.91345863  0.49927347  0.60965329     0.08260
C1205       C  0.89260926  0.50061869  0.61570068    -0.04840
H1206       H  0.94111589  0.49373499  0.62951594     0.08930
H1207       H  0.87936053  0.50415263  0.60575267     0.10130
Cu1208     Cu  0.91996279  0.49168607  0.67444747     0.44170
Cu1209     Cu  0.86571487  0.50045473  0.65696264     0.41990
Cu1210     Cu  0.88460276  0.50986124  0.71066751     0.43880
N1211       N  0.92852596  0.49647065  0.70505634    -0.33490
N1212       N  0.91531755  0.50460633  0.71859969    -0.27740
C1213       C  0.92509915  0.50740180  0.73700381    -0.03840
C1214       C  0.94551282  0.50053605  0.73486010     0.08370
C1215       C  0.94714954  0.49365950  0.71438797     0.02170
H1216       H  0.91780080  0.51363696  0.75093925     0.09820
H1217       H  0.96093558  0.48759866  0.70669126     0.08900
N1218       N  0.85364866  0.50729330  0.70228001    -0.34940
N1219       N  0.84613384  0.50349565  0.68332929    -0.27120
C1220       C  0.82517531  0.50094639  0.68491499    -0.02360
C1221       C  0.81958970  0.50295674  0.70588133     0.06250
C1222       C  0.83805942  0.50712341  0.71620885     0.04350
H1223       H  0.81493963  0.49704197  0.67198875     0.09450
H1224       H  0.84018586  0.50937541  0.73286694     0.08290
C1225       C  0.97596240  0.51825865  0.50219808     0.03470
C1226       C  0.99160234  0.50263393  0.50155384     0.03470
C1227       C  0.99224001  0.48679761  0.51701409     0.03470
C1228       C  0.97678029  0.48609184  0.53275680     0.03470
C1229       C  0.96121430  0.50173711  0.53349699     0.03470
C1230       C  0.96065938  0.51760846  0.51807480     0.03470
N1231       N  0.56037777  0.88100302  0.02075057    -0.26100
N1232       N  0.54071133  0.87511120  0.02341755    -0.33960
C1233       C  0.52824453  0.89187651  0.02212154     0.02240
C1234       C  0.54050069  0.90919954  0.01862451     0.08260
C1235       C  0.56085678  0.90193304  0.01796124    -0.04840
H1236       H  0.51136718  0.89141563  0.02322219     0.08930
H1237       H  0.57480648  0.91097352  0.01486809     0.10130
Cu1238     Cu  0.52984210  0.84496178  0.02678676     0.44170
Cu1239     Cu  0.58518993  0.86003878  0.01884101     0.41990
Cu1240     Cu  0.56507478  0.80725623  0.01053361     0.43880
N1241       N  0.52111776  0.81414255  0.02353424    -0.33490
N1242       N  0.53436220  0.80013374  0.01624642    -0.27740
C1243       C  0.52463077  0.78165322  0.01432455    -0.03840
C1244       C  0.50419140  0.78417629  0.02084000     0.08370
C1245       C  0.50247341  0.80497813  0.02667396     0.02170
H1246       H  0.53198262  0.76741672  0.00885614     0.09820
H1247       H  0.48863075  0.81297208  0.03221089     0.08900
N1248       N  0.59619147  0.81491524  0.01176646    -0.34940
N1249       N  0.60401974  0.83374346  0.01526547    -0.27120
C1250       C  0.62497528  0.83207872  0.01710674    -0.02360
C1251       C  0.63029344  0.81114344  0.01491315     0.06250
C1252       C  0.61167734  0.80087185  0.01136667     0.04350
H1253       H  0.63537828  0.84493773  0.02070085     0.09450
H1254       H  0.60938868  0.78423235  0.00921639     0.08290
C1255       C  0.45727627  0.75216993  0.03727425     0.04320
C1256       C  0.47249460  0.76799428  0.03671463    -0.11830
C1257       C  0.48780025  0.76805850  0.02106507     0.01820
C1258       C  0.48761411  0.75244688  0.00567925    -0.10360
C1259       C  0.47250654  0.73663723  0.00607048     0.04310
C1260       C  0.45748502  0.73640799  0.02197180    -0.09780
H1261       H  0.47253705  0.78020482  0.04847537     0.09900
H1262       H  0.49928907  0.75252583  0.99341182     0.07430
H1263       H  0.44590898  0.72404394  0.02228501     0.07280
N1264       N  0.34349523  0.74742557  0.10764590    -0.26100
N1265       N  0.35080764  0.74260652  0.08887567    -0.33960
C1266       C  0.33504255  0.74175773  0.07511092     0.02240
C1267       C  0.31667196  0.74623759  0.08535144     0.08260
C1268       C  0.32246776  0.74958240  0.10611070    -0.04840
H1269       H  0.33698383  0.73891413  0.05852696     0.08930
H1270       H  0.31235667  0.75433812  0.11880722     0.10130
Cu1271     Cu  0.38163529  0.74061557  0.08007918     0.44170
Cu1272     Cu  0.36351606  0.75301807  0.13336682     0.41990
Cu1273     Cu  0.41570537  0.76583241  0.11308093     0.43880
N1274       N  0.41166843  0.74731702  0.07093519    -0.33490
N1275       N  0.42433056  0.75792126  0.08326908    -0.27740
C1276       C  0.44252256  0.76119018  0.07339341    -0.03840
C1277       C  0.44117577  0.75216388  0.05373501     0.08370
C1278       C  0.42135125  0.74347435  0.05270984     0.02170
H1279       H  0.45576600  0.76927003  0.08017135     0.09820
H1280       H  0.41428111  0.73543036  0.03958256     0.08900
N1281       N  0.40819075  0.76451793  0.14417789    -0.34940
N1282       N  0.38990075  0.75925405  0.15227615    -0.27120
C1283       C  0.39241144  0.75713205  0.17321576    -0.02360
C1284       C  0.41327099  0.76105285  0.17810393     0.06250
C1285       C  0.42259709  0.76575053  0.15933051     0.04350
H1286       H  0.38037359  0.75185180  0.18384521     0.09450
H1287       H  0.43903110  0.76870360  0.15663998     0.08290
N1288       N  0.47495384  0.62122481  0.93688864    -0.26100
N1289       N  0.47341371  0.62825070  0.95634546    -0.33960
C1290       C  0.47418129  0.61222282  0.96983141     0.02240
C1291       C  0.47606045  0.59389060  0.95873142     0.08260
C1292       C  0.47639969  0.60003904  0.93776772    -0.04840
H1293       H  0.47348602  0.61385028  0.98667994     0.08930
H1294       H  0.47815470  0.58993745  0.92429337     0.10130
Cu1295     Cu  0.47075194  0.65887273  0.96576616     0.44170
Cu1296     Cu  0.47603939  0.64185106  0.91063432     0.41990
Cu1297     Cu  0.47770199  0.69680644  0.92823305     0.43880
N1298       N  0.47134936  0.69001391  0.97360623    -0.33490
N1299       N  0.47507675  0.70442813  0.95935715    -0.27740
C1300       C  0.47604294  0.72325007  0.96863956    -0.03840
C1301       C  0.47246579  0.72043956  0.98978799     0.08370
C1302       C  0.46947385  0.69918132  0.99243515     0.02170
H1303       H  0.47889995  0.73786051  0.96058197     0.09820
H1304       H  0.46675481  0.69094786  0.00697452     0.08900
N1305       N  0.47703154  0.68766454  0.89737919    -0.34940
N1306       N  0.47673140  0.66822984  0.89015487    -0.27120
C1307       C  0.47601660  0.66922263  0.86892774    -0.02360
C1308       C  0.47548388  0.69023246  0.86290715     0.06250
C1309       C  0.47619930  0.70123497  0.88141911     0.04350
H1310       H  0.47525987  0.65575897  0.85868467     0.09450
H1311       H  0.47599631  0.71807597  0.88322361     0.08290
C1312       C  0.49536297  0.48640826  0.02148823     0.03470
C1313       C  0.48045587  0.48499736  0.03771569     0.03470
C1314       C  0.46430750  0.50001967  0.03913121     0.03470
C1315       C  0.46267798  0.51606876  0.02388449     0.03470
C1316       C  0.47774278  0.51765076  0.00770464     0.03470
C1317       C  0.49388257  0.50249519  0.00632712     0.03470
N1318       N  0.60942574  0.49719405  0.85639052    -0.26100
N1319       N  0.60181213  0.49305696  0.83755685    -0.33960
C1320       C  0.61718697  0.49345907  0.82342476     0.02240
C1321       C  0.63566873  0.49806860  0.83346424     0.08260
C1322       C  0.63032718  0.50014973  0.85451110    -0.04840
H1323       H  0.61489998  0.49106322  0.80680579     0.08930
H1324       H  0.64066212  0.50436058  0.86726122     0.10130
Cu1325     Cu  0.57096958  0.48983260  0.82945118     0.44170
Cu1326     Cu  0.58968718  0.50024236  0.88274244     0.41990
Cu1327     Cu  0.53635211  0.51192433  0.86391994     0.43880
N1328       N  0.54064294  0.49564406  0.82089711    -0.33490
N1329       N  0.52770915  0.50528152  0.83369036    -0.27740
C1330       C  0.50936206  0.50835795  0.82392393    -0.03840
C1331       C  0.51094156  0.50014714  0.80393323     0.08370
C1332       C  0.53101186  0.49219240  0.80254315     0.02170
H1333       H  0.49586149  0.51572402  0.83096034     0.09820
H1334       H  0.53827944  0.48497675  0.78907100     0.08900
N1335       N  0.54463545  0.50871943  0.89482006    -0.34940
N1336       N  0.56330147  0.50379704  0.90234378    -0.27120
C1337       C  0.56138718  0.50076205  0.92324453    -0.02360
C1338       C  0.54049602  0.50367666  0.92877419     0.06250
C1339       C  0.53060850  0.50889343  0.91031202     0.04350
H1340       H  0.57403060  0.49602634  0.93347604     0.09450
H1341       H  0.51416838  0.51220935  0.90807468     0.08290
N1342       N  0.39415141  0.63085406  0.77132188    -0.26100
N1343       N  0.41310606  0.62438575  0.77666915    -0.33960
C1344       C  0.42616153  0.64071796  0.77723815     0.02240
C1345       C  0.41525836  0.65852504  0.77183975     0.08260
C1346       C  0.39486072  0.65181147  0.76838987    -0.04840
H1347       H  0.44268006  0.63951412  0.78072435     0.08930
H1348       H  0.38178702  0.66126218  0.76323937     0.10130
Cu1349     Cu  0.42323550  0.59395270  0.77986302     0.44170
Cu1350     Cu  0.36886910  0.61027536  0.76686035     0.41990
Cu1351     Cu  0.38979355  0.55875166  0.75624088     0.43880
N1352       N  0.43246662  0.56369976  0.77380302    -0.33490
N1353       N  0.41989082  0.55078009  0.76380215    -0.27740
C1354       C  0.42952353  0.53236558  0.76107478    -0.03840
C1355       C  0.44928904  0.53376134  0.76977323     0.08370
C1356       C  0.45065794  0.55389786  0.77777012     0.02170
H1357       H  0.42240574  0.51885030  0.75377200     0.09820
H1358       H  0.46389617  0.56099014  0.78559825     0.08900
N1359       N  0.35848016  0.56513802  0.75839804    -0.34940
N1360       N  0.35022324  0.58339577  0.76333005    -0.27120
C1361       C  0.32958441  0.58052548  0.76678317    -0.02360
C1362       C  0.32469796  0.55931943  0.76397055     0.06250
C1363       C  0.34365971  0.55039082  0.75837275     0.04350
H1364       H  0.31928769  0.59288103  0.77192797     0.09450
H1365       H  0.34708850  0.53424518  0.75493912     0.08290
C1366       C  0.49490875  0.50032578  0.78740407     0.04320
C1367       C  0.48020186  0.51659320  0.78646980    -0.11830
C1368       C  0.46514407  0.51704529  0.77051287     0.01820
C1369       C  0.46499969  0.50116709  0.75536233    -0.10360
C1370       C  0.47948516  0.48476389  0.75626870     0.04310
C1371       C  0.49438373  0.48435303  0.77234627    -0.09780
H1372       H  0.48047990  0.52887418  0.79815172     0.09900
H1373       H  0.45351846  0.50146054  0.74288127     0.07430
H1374       H  0.50563594  0.47168838  0.77303416     0.07280
N1375       N  0.47510606  0.41587827  0.64135301    -0.26100
N1376       N  0.47324156  0.43528531  0.64832405    -0.33960
C1377       C  0.47367614  0.44858280  0.63215904     0.02240
C1378       C  0.47577900  0.43714725  0.61402332     0.08260
C1379       C  0.47648192  0.41639184  0.62027998    -0.04840
H1380       H  0.47292892  0.46544533  0.63357556     0.08930
H1381       H  0.47871438  0.40282451  0.61039667     0.10130
Cu1382     Cu  0.47190564  0.44425716  0.67914879     0.44170
Cu1383     Cu  0.47755343  0.39024894  0.66136793     0.41990
Cu1384     Cu  0.48331456  0.40646198  0.71665087     0.43880
N1385       N  0.47550969  0.45173655  0.71017798    -0.33490
N1386       N  0.48084695  0.43766230  0.72429707    -0.27740
C1387       C  0.48329693  0.44714737  0.74292255    -0.03840
C1388       C  0.47905974  0.46822793  0.74027445     0.08370
C1389       C  0.47413237  0.47057865  0.71933003     0.02170
H1390       H  0.48744715  0.43924289  0.75732171     0.09820
H1391       H  0.47025866  0.48494635  0.71123930     0.08900
N1392       N  0.48171083  0.37596742  0.70627966    -0.34940
N1393       N  0.47991644  0.36970333  0.68659422    -0.27120
C1394       C  0.47846695  0.34863816  0.68630839    -0.02360
C1395       C  0.47908537  0.34161076  0.70679330     0.06250
C1396       C  0.48115601  0.35928756  0.71894147     0.04350
H1397       H  0.47619634  0.33928123  0.67237076     0.09450
H1398       H  0.48174256  0.36003318  0.73585822     0.08290
N1399       N  0.22225696  0.58247821  0.38870782    -0.26100
N1400       N  0.22095849  0.56284512  0.39520909    -0.33960
C1401       C  0.22143672  0.54997773  0.37868060     0.02240
C1402       C  0.22294110  0.56188322  0.36080494     0.08260
C1403       C  0.22337334  0.58248907  0.36758080    -0.04840
H1404       H  0.22129037  0.53306735  0.37965393     0.08930
H1405       H  0.22525389  0.59631845  0.35800626     0.10130
Cu1406     Cu  0.22032908  0.55278981  0.42582219     0.44170
Cu1407     Cu  0.22418722  0.60786822  0.40932338     0.41990
Cu1408     Cu  0.23075127  0.59023430  0.46374502     0.43880
N1409       N  0.22394663  0.54489395  0.45683457    -0.33490
N1410       N  0.22900072  0.55899835  0.47102950    -0.27740
C1411       C  0.23129518  0.54959279  0.48968522    -0.03840
C1412       C  0.22721771  0.52852157  0.48702919     0.08370
C1413       C  0.22254025  0.52605193  0.46602976     0.02170
H1414       H  0.23504968  0.55757601  0.50415291     0.09820
H1415       H  0.21866398  0.51165005  0.45800052     0.08900
N1416       N  0.22831348  0.62096026  0.45458223    -0.34940
N1417       N  0.22619647  0.62790096  0.43517244    -0.27120
C1418       C  0.22459085  0.64897684  0.43575010    -0.02360
C1419       C  0.22541036  0.65526525  0.45653068     0.06250
C1420       C  0.22782513  0.63711932  0.46789763     0.04350
H1421       H  0.22229561  0.65886299  0.42219215     0.09450
H1422       H  0.22898120  0.63569713  0.48474181     0.08290
N1423       N  0.13972362  0.36837816  0.52205624    -0.26100
N1424       N  0.15908297  0.37512962  0.52500225    -0.33960
C1425       C  0.17237677  0.35896283  0.52439807     0.02240
C1426       C  0.16113882  0.34092487  0.52107721     0.08260
C1427       C  0.14037369  0.34731247  0.51980753    -0.04840
H1428       H  0.18918109  0.36033767  0.52585943     0.08930
H1429       H  0.12693316  0.33752832  0.51665085     0.10130
Cu1430     Cu  0.16867563  0.40566447  0.52775762     0.44170
Cu1431     Cu  0.11405329  0.38900508  0.51947401     0.41990
Cu1432     Cu  0.13325633  0.44273814  0.51148646     0.43880
N1433       N  0.17743665  0.43623206  0.52343882    -0.33490
N1434       N  0.16412471  0.45014460  0.51606683    -0.27740
C1435       C  0.17401064  0.46845851  0.51334698    -0.03840
C1436       C  0.19460732  0.46585581  0.51946703     0.08370
C1437       C  0.19624948  0.44522994  0.52584411     0.02170
H1438       H  0.16667399  0.48262976  0.50766787     0.09820
H1439       H  0.21014104  0.43722054  0.53129369     0.08900
N1440       N  0.10230161  0.43454885  0.51344562    -0.34940
N1441       N  0.09462633  0.41555688  0.51649343    -0.27120
C1442       C  0.07359795  0.41721318  0.51832402    -0.02360
C1443       C  0.06817234  0.43825625  0.51666148     0.06250
C1444       C  0.08677314  0.44857707  0.51346779     0.04350
H1445       H  0.06317624  0.40426281  0.52144961     0.09450
H1446       H  0.08899106  0.46527046  0.51168442     0.08290
N1447       N  0.31138901  0.49327089  0.64965030    -0.26100
N1448       N  0.29194565  0.49192751  0.64260235    -0.33960
C1449       C  0.27854591  0.49343805  0.65860500     0.02240
C1450       C  0.28986014  0.49561081  0.67678343     0.08260
C1451       C  0.31069846  0.49526732  0.67070694    -0.04840
H1452       H  0.26169756  0.49300289  0.65706677     0.08930
H1453       H  0.32424429  0.49693827  0.68073882     0.10130
Cu1454     Cu  0.28275498  0.48930681  0.61193873     0.44170
Cu1455     Cu  0.33749904  0.49413464  0.62966122     0.41990
Cu1456     Cu  0.31958596  0.50434149  0.57584948     0.43880
N1457       N  0.27505666  0.49326622  0.58104463    -0.33490
N1458       N  0.28886246  0.50021102  0.56745466    -0.27740
C1459       C  0.27956649  0.50263208  0.54874508    -0.03840
C1460       C  0.25885606  0.49673543  0.55076866     0.08370
C1461       C  0.25652970  0.49083808  0.57146063     0.02170
H1462       H  0.28738466  0.50789302  0.53469888     0.09820
H1463       H  0.24237173  0.48565137  0.57910333     0.08900
N1464       N  0.35032072  0.50135646  0.58474607    -0.34940
N1465       N  0.35752193  0.49720633  0.60373557    -0.27120
C1466       C  0.37851849  0.49478963  0.60248542    -0.02360
C1467       C  0.38444236  0.49727290  0.58166938     0.06250
C1468       C  0.36613863  0.50158105  0.57111290     0.04350
H1469       H  0.38856561  0.49081318  0.61553911     0.09450
H1470       H  0.36429185  0.50436115  0.55450457     0.08290
C1471       C  0.24264695  0.49680347  0.53443361     0.04320
C1472       C  0.22687875  0.48158606  0.53454034    -0.11830
C1473       C  0.21126940  0.48166817  0.51912421     0.01820
C1474       C  0.21155802  0.49700309  0.50345878    -0.10360
C1475       C  0.22722959  0.51229013  0.50327163     0.04310
C1476       C  0.24273528  0.51217313  0.51878842    -0.09780
H1477       H  0.22670770  0.46972960  0.54666263     0.09900
H1478       H  0.19953919  0.49712741  0.49147451     0.07430
H1479       H  0.25480777  0.52406724  0.51869851     0.07280
C1480       C  0.22930857  0.51522242  0.78495709     0.03470
C1481       C  0.24560343  0.51342101  0.76980716     0.03470
C1482       C  0.24443123  0.49709228  0.75456221     0.03470
C1483       C  0.22834766  0.48191362  0.75555596     0.03470
C1484       C  0.21267983  0.48356214  0.77094397     0.03470
C1485       C  0.21324491  0.49995669  0.78574063     0.03470
N1486       N  0.13863267  0.74835719  0.39714044    -0.26100
N1487       N  0.15738361  0.74375922  0.38975711    -0.33960
C1488       C  0.17130100  0.74334659  0.40540747     0.02240
C1489       C  0.16115328  0.74788145  0.42383428     0.08260
C1490       C  0.14029426  0.75078662  0.41815153    -0.04840
H1491       H  0.18785553  0.74053400  0.40335364     0.08930
H1492       H  0.12756602  0.75525231  0.42834530     0.10130
Cu1493     Cu  0.16546632  0.74129718  0.35886244     0.44170
Cu1494     Cu  0.11290491  0.75276094  0.37685139     0.41990
Cu1495     Cu  0.13214635  0.76368703  0.32291684     0.43880
N1496       N  0.17508245  0.74794463  0.32906175    -0.33490
N1497       N  0.16286941  0.75759898  0.31553269    -0.27740
C1498       C  0.17365963  0.76120746  0.29785111    -0.03840
C1499       C  0.19367733  0.75330023  0.30055623     0.08370
C1500       C  0.19398312  0.74502770  0.32055602     0.02170
H1501       H  0.16731435  0.76868766  0.28403572     0.09820
H1502       H  0.20708052  0.73788695  0.32857919     0.08900
N1503       N  0.10119430  0.76115450  0.33143649    -0.34940
N1504       N  0.09366271  0.75679733  0.35024164    -0.27120
C1505       C  0.07271194  0.75428083  0.34846611    -0.02360
C1506       C  0.06711674  0.75691217  0.32755539     0.06250
C1507       C  0.08558629  0.76141731  0.31745119     0.04350
H1508       H  0.06248871  0.74994213  0.36121287     0.09450
H1509       H  0.08771855  0.76416078  0.30088024     0.08290
C1510       C  0.24358559  0.73809143  0.27306096     0.04320
C1511       C  0.22649708  0.73786381  0.28665928    -0.11830
C1512       C  0.21117462  0.75350654  0.28560593     0.01820
C1513       C  0.21287164  0.76928656  0.27045961    -0.10360
C1514       C  0.22979738  0.76945773  0.25650793     0.04310
C1515       C  0.24526237  0.75391070  0.25799366    -0.09780
H1516       H  0.22522917  0.72545331  0.29814104     0.09900
H1517       H  0.20099074  0.78133527  0.26942174     0.07430
H1518       H  0.25841881  0.75396965  0.24732968     0.07280
N1519       N  0.22793632  0.88161919  0.18235640    -0.26100
N1520       N  0.22530722  0.87549877  0.20196788    -0.33960
C1521       C  0.22709880  0.89198387  0.21471726     0.02240
C1522       C  0.23117944  0.90952414  0.20286280     0.08260
C1523       C  0.23130548  0.90253133  0.18226738    -0.04840
H1524       H  0.22596719  0.89112275  0.23159546     0.08930
H1525       H  0.23446519  0.91173120  0.16841885     0.10130
Cu1526     Cu  0.22225089  0.84525469  0.21268624     0.44170
Cu1527     Cu  0.22872773  0.86034621  0.15742728     0.41990
Cu1528     Cu  0.23752049  0.80707184  0.17786917     0.43880
N1529       N  0.22717726  0.81489754  0.22230592    -0.33490
N1530       N  0.23438377  0.80068191  0.20922901    -0.27740
C1531       C  0.23700160  0.78250836  0.21946076    -0.03840
C1532       C  0.23093337  0.78547322  0.24001533     0.08370
C1533       C  0.22472543  0.80619611  0.24128776     0.02170
H1534       H  0.24205575  0.76803547  0.21227114     0.09820
H1535       H  0.21890878  0.81433426  0.25494365     0.08900
N1536       N  0.23324698  0.81443523  0.14680788    -0.34940
N1537       N  0.23003668  0.83331887  0.13890348    -0.27120
C1538       C  0.22695629  0.83139802  0.11806278    -0.02360
C1539       C  0.22795627  0.81029767  0.11293529     0.06250
C1540       C  0.23203770  0.80015135  0.13152051     0.04350
H1541       H  0.22363195  0.84427403  0.10757503     0.09450
H1542       H  0.23389518  0.78348017  0.13385809     0.08290
N1543       N  0.35553186  0.66435279  0.28281555    -0.26100
N1544       N  0.34938394  0.68367044  0.28711189    -0.33960
C1545       C  0.36604889  0.69623519  0.28847209     0.02240
C1546       C  0.38384638  0.68481368  0.28416841     0.08260
C1547       C  0.37663109  0.66448234  0.28085426    -0.04840
H1548       H  0.36502344  0.71305828  0.29017358     0.08930
H1549       H  0.38578361  0.65126824  0.27555694     0.10130
Cu1550     Cu  0.31935708  0.69525496  0.28516805     0.44170
Cu1551     Cu  0.33407627  0.63960517  0.27783618     0.41990
Cu1552     Cu  0.28006832  0.65903853  0.28078857     0.43880
N1553       N  0.28896762  0.70450468  0.27970833    -0.33490
N1554       N  0.27386778  0.69050737  0.27898018    -0.27740
C1555       C  0.25550029  0.70025201  0.27613140    -0.03840
C1556       C  0.25934516  0.72146921  0.27463664     0.08370
C1557       C  0.28074691  0.72369982  0.27692454     0.02170
H1558       H  0.24050265  0.69248192  0.27515079     0.09820
H1559       H  0.28954823  0.73815288  0.27723344     0.08900
N1560       N  0.28807280  0.62804308  0.27784701    -0.34940
N1561       N  0.30717934  0.62037773  0.27591622    -0.27120
C1562       C  0.30556245  0.59943938  0.27305754    -0.02360
C1563       C  0.28441469  0.59386842  0.27315301     0.06250
C1564       C  0.27405203  0.61256171  0.27646693     0.04350
H1565       H  0.31878716  0.58913980  0.27082615     0.09450
H1566       H  0.25741098  0.61497406  0.27808070     0.08290
C1567       C  0.21283529  0.47989172  0.26893043     0.03470
C1568       C  0.21164812  0.49307666  0.28735526     0.03470
C1569       C  0.22560368  0.51103462  0.28740253     0.03470
C1570       C  0.24102147  0.51379337  0.27149755     0.03470
C1571       C  0.24325694  0.49889541  0.25553943     0.03470
C1572       C  0.22840664  0.48298103  0.25344740     0.03470
C1573       C  0.95757157  0.75454830  0.25040398     0.03470
C1574       C  0.95830140  0.73927070  0.26630092     0.03470
C1575       C  0.97450059  0.73963670  0.28141362     0.03470
C1576       C  0.99015335  0.75526399  0.28033234     0.03470
C1577       C  0.98927846  0.77066451  0.26442108     0.03470
C1578       C  0.97327872  0.76993127  0.24919716     0.03470
C1579       C  0.72992278  0.51328001  0.28678225     0.03470
C1580       C  0.74472717  0.51335291  0.27036617     0.03470
C1581       C  0.74407633  0.49771166  0.25470666     0.03470
C1582       C  0.72898370  0.48164424  0.25574160     0.03470
C1583       C  0.71410443  0.48165223  0.27207251     0.03470
C1584       C  0.71473602  0.49723721  0.28779919     0.03470
N1585       N  0.80898107  0.75497140  0.13461432    -0.26100
N1586       N  0.79041402  0.75992438  0.14225263    -0.33960
C1587       C  0.77631090  0.76022778  0.12677800     0.02240
C1588       C  0.78609773  0.75488972  0.10831977     0.08260
C1589       C  0.80696650  0.75192119  0.11375559    -0.04840
H1590       H  0.75982737  0.76319954  0.12910171     0.08930
H1591       H  0.81945291  0.74678513  0.10357799     0.10130
Cu1592     Cu  0.78227782  0.76146111  0.17331704     0.44170
Cu1593     Cu  0.83526635  0.75077092  0.15387597     0.41990
Cu1594     Cu  0.81773247  0.73866267  0.20716257     0.43880
N1595       N  0.77385300  0.75263907  0.20305755    -0.33490
N1596       N  0.78707599  0.74289501  0.21553633    -0.27740
C1597       C  0.77749893  0.73833705  0.23364403    -0.03840
C1598       C  0.75715128  0.74564682  0.23243912     0.08370
C1599       C  0.75537791  0.75462083  0.21277588     0.02170
H1600       H  0.78503721  0.73097361  0.24691234     0.09820
H1601       H  0.74172496  0.76197758  0.20597403     0.08900
N1602       N  0.84834035  0.74319849  0.19868752    -0.34940
N1603       N  0.85532802  0.74773949  0.17973908    -0.27120
C1604       C  0.87608893  0.75152799  0.18110242    -0.02360
C1605       C  0.88204710  0.74956954  0.20194199     0.06250
C1606       C  0.86408706  0.74420249  0.21246802     0.04350
H1607       H  0.88585161  0.75632380  0.16815739     0.09450
H1608       H  0.86240492  0.74179188  0.22914782     0.08290
C1609       C  0.72721510  0.72989454  0.28094940     0.04320
C1610       C  0.74181241  0.72971827  0.26462562    -0.11830
C1611       C  0.74123215  0.74519542  0.24906536     0.01820
C1612       C  0.72571484  0.76067805  0.24980463    -0.10360
C1613       C  0.71093636  0.76084355  0.26595186     0.04310
C1614       C  0.71176462  0.74543589  0.28151071    -0.09780
H1615       H  0.75378602  0.71772841  0.26424630     0.09900
H1616       H  0.72521102  0.77273202  0.23790548     0.07430
H1617       H  0.70049521  0.74562486  0.29414931     0.07280
N1618       N  0.59687828  0.83083738  0.27095376    -0.26100
N1619       N  0.60406618  0.81194368  0.27552769    -0.33960
C1620       C  0.58813236  0.79844239  0.27667472     0.02240
C1621       C  0.56980082  0.80902524  0.27262826     0.08260
C1622       C  0.57581015  0.82967226  0.26924012    -0.04840
H1623       H  0.58990265  0.78185963  0.27963117     0.08930
H1624       H  0.56576378  0.84260134  0.26491600     0.10130
Cu1625     Cu  0.63487247  0.80290408  0.27743823     0.44170
Cu1626     Cu  0.61685000  0.85650173  0.26576802     0.41990
Cu1627     Cu  0.67067423  0.83812152  0.25783372     0.43880
N1628       N  0.66528278  0.79429099  0.27169904    -0.33490
N1629       N  0.67856076  0.80748642  0.26312789    -0.27740
C1630       C  0.69681937  0.79772702  0.25977124    -0.03840
C1631       C  0.69489495  0.77731727  0.26670479     0.08370
C1632       C  0.67468587  0.77566007  0.27423297     0.02170
H1633       H  0.71051412  0.80505209  0.25309409     0.09820
H1634       H  0.66720835  0.76186459  0.28055869     0.08900
N1635       N  0.66204514  0.86899996  0.25933965    -0.34940
N1636       N  0.64287135  0.87632102  0.26205175    -0.27120
C1637       C  0.64399333  0.89740834  0.26356959    -0.02360
C1638       C  0.66487183  0.90323145  0.26208148     0.06250
C1639       C  0.67571828  0.88485290  0.25939610     0.04350
H1640       H  0.63080481  0.90760259  0.26647320     0.09450
H1641       H  0.69248856  0.88304139  0.25808142     0.08290
N1642       N  0.73331516  0.61764149  0.35455333    -0.26100
N1643       N  0.73543325  0.62381080  0.33487333    -0.33960
C1644       C  0.73503782  0.60714509  0.32218061     0.02240
C1645       C  0.73273558  0.58944519  0.33418128     0.08260
C1646       C  0.73177845  0.59651560  0.35472573    -0.04840
H1647       H  0.73579153  0.60793054  0.30527511     0.08930
H1648       H  0.72924521  0.58713755  0.36858526     0.10130
Cu1649     Cu  0.73684211  0.65411352  0.32412281     0.44170
Cu1650     Cu  0.73081771  0.63884017  0.37969223     0.41990
Cu1651     Cu  0.72512684  0.69257578  0.36004086     0.43880
N1652       N  0.73281282  0.68470991  0.31506618    -0.33490
N1653       N  0.72730958  0.69914409  0.32871449    -0.27740
C1654       C  0.72435685  0.71738431  0.31874120    -0.03840
C1655       C  0.72840529  0.71422238  0.29772830     0.08370
C1656       C  0.73381059  0.69333015  0.29591608     0.02170
H1657       H  0.71993099  0.73188878  0.32627621     0.09820
H1658       H  0.73768077  0.68492799  0.28173532     0.08900
N1659       N  0.72650219  0.68461113  0.39111490    -0.34940
N1660       N  0.72827689  0.66550426  0.39891933    -0.27120
C1661       C  0.72889981  0.66703930  0.42003902    -0.02360
C1662       C  0.72780141  0.68811631  0.42542054     0.06250
C1663       C  0.72623806  0.69861939  0.40668092     0.04350
H1664       H  0.73059080  0.65392454  0.43061648     0.09450
H1665       H  0.72498012  0.71536029  0.40444253     0.08290
C1666       C  0.45959054  0.23321892  0.76620491     0.03470
C1667       C  0.47522299  0.23242358  0.78181919     0.03470
C1668       C  0.49132322  0.24752668  0.78214565     0.03470
C1669       C  0.49204510  0.26320069  0.76658385     0.03470
C1670       C  0.47644524  0.26387831  0.75086103     0.03470
C1671       C  0.46041612  0.24865283  0.75043008     0.03470
N1672       N  0.73240919  0.12108144  0.84925249    -0.26100
N1673       N  0.73288465  0.12799950  0.82972687    -0.33960
C1674       C  0.73208412  0.11178539  0.81651398     0.02240
C1675       C  0.73114229  0.09363776  0.82804464     0.08260
C1676       C  0.73155720  0.09995583  0.84882209    -0.04840
H1677       H  0.73171905  0.11317997  0.79963300     0.08930
H1678       H  0.73038300  0.09005495  0.86250320     0.10130
Cu1679     Cu  0.73253532  0.15865010  0.82012443     0.44170
Cu1680     Cu  0.73089398  0.14115358  0.87509702     0.41990
Cu1681     Cu  0.71868016  0.19471142  0.85759260     0.43880
N1682       N  0.72692290  0.18931240  0.81245457    -0.33490
N1683       N  0.72045279  0.20282032  0.82661184    -0.27740
C1684       C  0.71755543  0.22154609  0.81754434    -0.03840
C1685       C  0.72269801  0.21964300  0.79662724     0.08370
C1686       C  0.72860596  0.19900369  0.79390209     0.02170
H1687       H  0.71291270  0.23562577  0.82572600     0.09820
H1688       H  0.73372733  0.19159186  0.77956969     0.08900
N1689       N  0.72362088  0.18597875  0.88810135    -0.34940
N1690       N  0.72802575  0.16696759  0.89505770    -0.27120
C1691       C  0.73109344  0.16805489  0.91596780    -0.02360
C1692       C  0.72882800  0.18878934  0.92206290     0.06250
C1693       C  0.72403569  0.19954508  0.90402803     0.04350
H1694       H  0.73530575  0.15493783  0.92581990     0.09450
H1695       H  0.72122826  0.21617875  0.90249304     0.08290
C1696       C  0.70752954  0.26771644  0.76578184     0.04320
C1697       C  0.70733685  0.25170713  0.78080186    -0.11830
C1698       C  0.72296149  0.23635276  0.78089017     0.01820
C1699       C  0.73905279  0.23718454  0.76611108    -0.10360
C1700       C  0.73955116  0.25323941  0.75121957     0.04310
C1701       C  0.72365806  0.26832292  0.75095240    -0.09780
H1702       H  0.69507556  0.25112746  0.79244917     0.09900
H1703       H  0.75126012  0.22541681  0.76630208     0.07430
H1704       H  0.72401392  0.28063127  0.73931366     0.07280
N1705       N  0.81142152  0.25189690  0.63973801    -0.26100
N1706       N  0.79271733  0.25769988  0.64639631    -0.33960
C1707       C  0.77905216  0.25704029  0.63053488     0.02240
C1708       C  0.78933688  0.25047369  0.61279668     0.08260
C1709       C  0.80999179  0.24754971  0.61904925    -0.04840
H1710       H  0.76258344  0.26061820  0.63201450     0.08930
H1711       H  0.82275576  0.24188044  0.60951706     0.10130
Cu1712     Cu  0.78411064  0.26338072  0.67678874     0.44170
Cu1713     Cu  0.83707508  0.24884198  0.66017764     0.41990
Cu1714     Cu  0.81884556  0.24719383  0.71483670     0.43880
N1715       N  0.77486266  0.25926472  0.70721510    -0.33490
N1716       N  0.78783023  0.25185816  0.72145069    -0.27740
C1717       C  0.77738079  0.24860318  0.73934551    -0.03840
C1718       C  0.75678246  0.25439671  0.73611378     0.08370
C1719       C  0.75572535  0.26114942  0.71557731     0.02170
H1720       H  0.78429043  0.24260376  0.75360929     0.09820
H1721       H  0.74197753  0.26629562  0.70712190     0.08900
N1722       N  0.84965548  0.24774474  0.70592193    -0.34940
N1723       N  0.85686533  0.24801068  0.68650994    -0.27120
C1724       C  0.87797043  0.24896093  0.68736172    -0.02360
C1725       C  0.88396675  0.24970051  0.70826893     0.06250
C1726       C  0.86563042  0.24885387  0.71944612     0.04350
H1727       H  0.88810795  0.24976509  0.67385394     0.09450
H1728       H  0.86395709  0.24916465  0.73629853     0.08290
N1729       N  0.59306450  0.33647924  0.77103143    -0.26100
N1730       N  0.60069534  0.31784332  0.77590475    -0.33960
C1731       C  0.58534032  0.30366037  0.77586428     0.02240
C1732       C  0.56688129  0.31341868  0.77055203     0.08260
C1733       C  0.57221177  0.33439473  0.76781681    -0.04840
H1734       H  0.58770219  0.28713094  0.77869797     0.08930
H1735       H  0.56194536  0.34690332  0.76282396     0.10130
Cu1736     Cu  0.63161514  0.30969495  0.77850078     0.44170
Cu1737     Cu  0.61268503  0.36281264  0.76724197     0.41990
Cu1738     Cu  0.66556830  0.34392716  0.75492638     0.43880
N1739       N  0.66152807  0.30085153  0.77111536    -0.33490
N1740       N  0.67415494  0.31363560  0.76109122    -0.27740
C1741       C  0.69240298  0.30392278  0.75753017    -0.03840
C1742       C  0.69110635  0.28390258  0.76573840     0.08370
C1743       C  0.67124563  0.28249467  0.77422710     0.02170
H1744       H  0.70572455  0.31113276  0.75003417     0.09820
H1745       H  0.66423734  0.26912303  0.78185396     0.08900
N1746       N  0.65770255  0.37480011  0.75881155    -0.34940
N1747       N  0.63909940  0.38237349  0.76379580    -0.27120
C1748       C  0.64121971  0.40316828  0.76737220    -0.02360
C1749       C  0.66218397  0.40851432  0.76480099     0.06250
C1750       C  0.67192347  0.39013173  0.75922825     0.04350
H1751       H  0.62870867  0.41340014  0.77237315     0.09450
H1752       H  0.68841303  0.38784074  0.75624269     0.08290
N1753       N  0.30724767  0.12668878  0.51046798    -0.26100
N1754       N  0.28886036  0.11963306  0.50402824    -0.33960
C1755       C  0.27495263  0.13529793  0.50379617     0.02240
C1756       C  0.28455424  0.15338532  0.51064367     0.08260
C1757       C  0.30522472  0.14743857  0.51451314    -0.04840
H1758       H  0.25867821  0.13335604  0.49958941     0.08930
H1759       H  0.31754732  0.15721638  0.52076608     0.10130
Cu1760     Cu  0.28037433  0.08884227  0.49962167     0.44170
Cu1761     Cu  0.33328092  0.10649423  0.51495299     0.41990
Cu1762     Cu  0.31372892  0.05342582  0.52293203     0.43880
N1763       N  0.27102330  0.05867506  0.50596999    -0.33490
N1764       N  0.28350945  0.04559956  0.51588882    -0.27740
C1765       C  0.27331718  0.02765134  0.51961501    -0.03840
C1766       C  0.25329018  0.02957005  0.51163537     0.08370
C1767       C  0.25237252  0.04946631  0.50302597     0.02170
H1768       H  0.28009222  0.01419614  0.52735701     0.09820
H1769       H  0.23902642  0.05693043  0.49574369     0.08900
N1770       N  0.34478369  0.06108447  0.52236682    -0.34940
N1771       N  0.35277826  0.07985567  0.51890155    -0.27120
C1772       C  0.37381820  0.07771343  0.51735919    -0.02360
C1773       C  0.37890331  0.05657812  0.51974798     0.06250
C1774       C  0.36003881  0.04677368  0.52305300     0.04350
H1775       H  0.38448813  0.09034803  0.51381248     0.09450
H1776       H  0.35739086  0.03019271  0.52520576     0.08290
C1777       C  0.22054529  0.98330308  0.52848693     0.04320
C1778       C  0.23610120  0.99872064  0.52822624    -0.11830
C1779       C  0.23655598  0.01375412  0.51225698     0.01820
C1780       C  0.22108531  0.01348613  0.49672196    -0.10360
C1781       C  0.20539947  0.99814653  0.49679126     0.04310
C1782       C  0.20530716  0.98297266  0.51267452    -0.09780
H1783       H  0.24791213  0.99890540  0.54040528     0.09900
H1784       H  0.22134903  0.02522661  0.48452821     0.07430
H1785       H  0.19334868  0.97098187  0.51285881     0.07280
N1786       N  0.21936097  0.86951779  0.59991753    -0.26100
N1787       N  0.21699362  0.87622641  0.58044128    -0.33960
C1788       C  0.21774324  0.85998760  0.56722639     0.02240
C1789       C  0.22056622  0.84195959  0.57864724     0.08260
C1790       C  0.22139272  0.84842824  0.59942376    -0.04840
H1791       H  0.21674522  0.86129917  0.55036283     0.08930
H1792       H  0.22414177  0.83867798  0.61299626     0.10130
Cu1793     Cu  0.21457589  0.90678681  0.57073464     0.44170
Cu1794     Cu  0.22150115  0.89018897  0.62559200     0.41990
Cu1795     Cu  0.22718772  0.94463075  0.60704134     0.43880
N1796       N  0.21752201  0.93762685  0.56223664    -0.33490
N1797       N  0.22343991  0.95191752  0.57588620    -0.27740
C1798       C  0.22546406  0.97039607  0.56608167    -0.03840
C1799       C  0.22032270  0.96750484  0.54522070     0.08370
C1800       C  0.21531595  0.94653721  0.54332266     0.02170
H1801       H  0.23002976  0.98486029  0.57362125     0.09820
H1802       H  0.21094347  0.93826838  0.52919425     0.08900
N1803       N  0.22616331  0.93576683  0.63800668    -0.34940
N1804       N  0.22410877  0.91651251  0.64537500    -0.27120
C1805       C  0.22334891  0.91759621  0.66653043    -0.02360
C1806       C  0.22468384  0.93853461  0.67245075     0.06250
C1807       C  0.22656330  0.94939728  0.65391487     0.04350
H1808       H  0.22137780  0.90426348  0.67676952     0.09450
H1809       H  0.22805792  0.96615683  0.65202605     0.08290
N1810       N  0.13750135  0.00832014  0.38220543    -0.26100
N1811       N  0.15520936  0.01488463  0.39065558    -0.33960
C1812       C  0.16962576  0.01720822  0.37573880     0.02240
C1813       C  0.16110058  0.01126389  0.35678273     0.08260
C1814       C  0.14048737  0.00598853  0.36137659    -0.04840
H1815       H  0.18565114  0.02160488  0.37887790     0.08930
H1816       H  0.12902198  0.99956433  0.35068970     0.10130
Cu1817     Cu  0.16259639  0.01474045  0.42195330     0.44170
Cu1818     Cu  0.11137449  0.00124556  0.40065962     0.41990
Cu1819     Cu  0.12904371  0.98829615  0.45440880     0.43880
N1820       N  0.17180468  0.00501054  0.45120782    -0.33490
N1821       N  0.15928973  0.99412977  0.46338568    -0.27740
C1822       C  0.16924978  0.98966165  0.48137780    -0.03840
C1823       C  0.18914813  0.99818642  0.48035198     0.08370
C1824       C  0.19020931  0.00773712  0.46091042     0.02170
H1825       H  0.16226206  0.98145631  0.49441214     0.09820
H1826       H  0.20331713  0.01604036  0.45421598     0.08900
N1827       N  0.09849473  0.99205305  0.44524943    -0.34940
N1828       N  0.09147209  0.99693387  0.42635132    -0.27120
C1829       C  0.07064556  0.00036729  0.42765667    -0.02360
C1830       C  0.06470581  0.99780010  0.44839336     0.06250
C1831       C  0.08270571  0.99243962  0.45890504     0.04350
H1832       H  0.06083993  0.00540531  0.41478706     0.09450
H1833       H  0.08440583  0.98973419  0.47554642     0.08290
N1834       N  0.85750903  0.58628181  0.52324243    -0.26100
N1835       N  0.85088643  0.56768933  0.52950967    -0.33960
C1836       C  0.86699159  0.55434220  0.53005426     0.02240
C1837       C  0.88472617  0.56476940  0.52374255     0.08260
C1838       C  0.87829896  0.58511967  0.51973202    -0.04840
H1839       H  0.86560066  0.53783858  0.53358813     0.08930
H1840       H  0.88767950  0.59766499  0.51335341     0.10130
Cu1841     Cu  0.82031017  0.55827698  0.53263319     0.44170
Cu1842     Cu  0.83717663  0.61108264  0.51678645     0.41990
Cu1843     Cu  0.78614499  0.58932507  0.50404024     0.43880
N1844       N  0.79057712  0.54837043  0.52542565    -0.33490
N1845       N  0.77806437  0.55988355  0.51375295    -0.27740
C1846       C  0.76011486  0.54956616  0.51050223    -0.03840
C1847       C  0.76144027  0.53041632  0.52055918     0.08370
C1848       C  0.78103644  0.53019723  0.52989938     0.02170
H1849       H  0.74706341  0.55574825  0.50166120     0.09820
H1850       H  0.78808268  0.51764811  0.53882549     0.08900
N1851       N  0.79286204  0.62064902  0.50407466    -0.34940
N1852       N  0.81090536  0.62916553  0.50954080    -0.27120
C1853       C  0.80812475  0.65002351  0.51144027    -0.02360
C1854       C  0.78729867  0.65452498  0.50715908     0.06250
C1855       C  0.77826933  0.63555526  0.50239284     0.04350
H1856       H  0.81991514  0.66082710  0.51700070     0.09450
H1857       H  0.76191332  0.63253696  0.49927066     0.08290
N1858       N  0.72774877  0.36636866  0.60469158    -0.26100
N1859       N  0.72663736  0.37349094  0.58525517    -0.33960
C1860       C  0.72694856  0.35744559  0.57180616     0.02240
C1861       C  0.72820322  0.33909497  0.58299313     0.08260
C1862       C  0.72850765  0.34519849  0.60390674    -0.04840
H1863       H  0.72651639  0.35908734  0.55494918     0.08930
H1864       H  0.72991059  0.33508999  0.61741964     0.10130
Cu1865     Cu  0.72592425  0.40422792  0.57590049     0.44170
Cu1866     Cu  0.72962144  0.38655058  0.63078429     0.41990
Cu1867     Cu  0.73824079  0.44091584  0.61312806     0.43880
N1868       N  0.72935460  0.43519120  0.56813462    -0.33490
N1869       N  0.73517825  0.44906997  0.58223086    -0.27740
C1870       C  0.73687857  0.46791754  0.57311712    -0.03840
C1871       C  0.73161652  0.46569436  0.55222798     0.08370
C1872       C  0.72689472  0.44473945  0.54957779     0.02170
H1873       H  0.74100050  0.48221576  0.58121014     0.09820
H1874       H  0.72223926  0.43698275  0.53524970     0.08900
N1875       N  0.73511544  0.43186512  0.64377901    -0.34940
N1876       N  0.73201505  0.41265139  0.65089597    -0.27120
C1877       C  0.72959310  0.41374738  0.67192435    -0.02360
C1878       C  0.73094427  0.43464511  0.67788546     0.06250
C1879       C  0.73447130  0.44549398  0.65965946     0.04350
H1880       H  0.72625149  0.40052917  0.68194901     0.09450
H1881       H  0.73599842  0.46227488  0.65794920     0.08290
C1882       C  0.74549233  0.51373772  0.52079986     0.04320
C1883       C  0.74588570  0.49814674  0.53624552    -0.11830
C1884       C  0.73085101  0.48220586  0.53626873     0.01820
C1885       C  0.71508272  0.48207844  0.52101176    -0.10360
C1886       C  0.71437438  0.49771413  0.50567361     0.04310
C1887       C  0.72971490  0.51334062  0.50550645    -0.09780
H1888       H  0.75792943  0.49826422  0.54818499     0.09900
H1889       H  0.70335704  0.46984613  0.52111737     0.07430
H1890       H  0.72921322  0.52526920  0.49349739     0.07280
N1891       N  0.64514216  0.49742550  0.39165950    -0.26100
N1892       N  0.66358250  0.50326341  0.39904749    -0.33960
C1893       C  0.67758653  0.50365723  0.38352812     0.02240
C1894       C  0.66789791  0.49764728  0.36518745     0.08260
C1895       C  0.64715137  0.49401852  0.37082330    -0.04840
H1896       H  0.69388155  0.50767085  0.38565944     0.08930
H1897       H  0.63469867  0.48857144  0.36071807     0.10130
Cu1898     Cu  0.67142858  0.50758797  0.42993150     0.44170
Cu1899     Cu  0.61900258  0.49344056  0.41146770     0.41990
Cu1900     Cu  0.63621381  0.48942829  0.46653662     0.43880
N1901       N  0.68010344  0.50257645  0.46047108    -0.33490
N1902       N  0.66703237  0.49449212  0.47416908    -0.27740
C1903       C  0.67712944  0.49132665  0.49235668    -0.03840
C1904       C  0.69759825  0.49788867  0.48988131     0.08370
C1905       C  0.69892809  0.50497018  0.46946554     0.02170
H1906       H  0.67001235  0.48507850  0.50637275     0.09820
H1907       H  0.71263418  0.51092812  0.46156550     0.08900
N1908       N  0.60549886  0.49041322  0.45693809    -0.34940
N1909       N  0.59859488  0.49170055  0.43741250    -0.27120
C1910       C  0.57747561  0.49320251  0.43796020    -0.02360
C1911       C  0.57116102  0.49318278  0.45879515     0.06250
C1912       C  0.58934469  0.49135834  0.47020786     0.04350
H1913       H  0.56757032  0.49509203  0.42434191     0.09450
H1914       H  0.59080977  0.49119317  0.48708889     0.08290
C1915       C  0.72799744  0.23125983  0.50395424     0.03470
C1916       C  0.71223525  0.24674761  0.50363662     0.03470
C1917       C  0.71131089  0.26202850  0.51961916     0.03470
C1918       C  0.72677911  0.26254031  0.53539718     0.03470
C1919       C  0.74252299  0.24707341  0.53581103     0.03470
C1920       C  0.74323317  0.23162704  0.51997281     0.03470
C1921       C  0.97372294  0.26896788  0.25143136     0.03470
C1922       C  0.98901394  0.26809538  0.26733453     0.03470
C1923       C  0.98813717  0.25221253  0.28268876     0.03470
C1924       C  0.97248238  0.23662760  0.28155739     0.03470
C1925       C  0.95754319  0.23715726  0.26525262     0.03470
C1926       C  0.95833043  0.25322592  0.25012463     0.03470
N1927       N  0.97683893  0.38264050  0.60323738    -0.26100
N1928       N  0.97983675  0.37521378  0.58413684    -0.33960
C1929       C  0.97945170  0.39086347  0.57025457     0.02240
C1930       C  0.97595498  0.40939077  0.58069206     0.08260
C1931       C  0.97459075  0.40370469  0.60175135    -0.04840
H1932       H  0.98134026  0.38874962  0.55355997     0.08930
H1933       H  0.97149997  0.41398658  0.61484123     0.10130
Cu1934     Cu  0.98199551  0.34438859  0.57548899     0.44170
Cu1935     Cu  0.97476261  0.36245748  0.62951873     0.41990
Cu1936     Cu  0.96267789  0.30898782  0.61094011     0.43880
N1937       N  0.97646542  0.31394712  0.56704559    -0.33490
N1938       N  0.96802301  0.30062747  0.58028347    -0.27740
C1939       C  0.96527360  0.28214636  0.57064566    -0.03840
C1940       C  0.97243071  0.28403493  0.55026845     0.08370
C1941       C  0.97942675  0.30445272  0.54854409     0.02170
H1942       H  0.95897040  0.26830922  0.57806400     0.09820
H1943       H  0.98582832  0.31198814  0.53481860     0.08900
N1944       N  0.96655999  0.31727317  0.64187400    -0.34940
N1945       N  0.97184859  0.33590395  0.64924703    -0.27120
C1946       C  0.97559527  0.33388912  0.67005544    -0.02360
C1947       C  0.97270323  0.31298026  0.67574671     0.06250
C1948       C  0.96672137  0.30322020  0.65740665     0.04350
H1949       H  0.98083333  0.34648097  0.68009494     0.09450
H1950       H  0.96314032  0.28682507  0.65522617     0.08290
C1951       C  0.97252947  0.26780605  0.53386659     0.04320
C1952       C  0.95760857  0.25175337  0.53413744    -0.11830
C1953       C  0.95752761  0.23628853  0.51856726     0.01820
C1954       C  0.97253775  0.23698856  0.50262389    -0.10360
C1955       C  0.98763006  0.25287417  0.50223541     0.04310
C1956       C  0.98752907  0.26827207  0.51788162    -0.09780
H1957       H  0.94606530  0.25130329  0.54649345     0.09900
H1958       H  0.97257592  0.22507981  0.49056930     0.07430
H1959       H  0.99916030  0.28057539  0.51764466     0.07280
N1960       N  0.05595814  0.24819591  0.38742837    -0.26100
N1961       N  0.03702340  0.24408358  0.39464991    -0.33960
C1962       C  0.02320147  0.24461078  0.37890652     0.02240
C1963       C  0.03359532  0.24945510  0.36065876     0.08260
C1964       C  0.05448172  0.25140132  0.36654119    -0.04840
H1965       H  0.00658806  0.24211713  0.38082108     0.08930
H1966       H  0.06744243  0.25569357  0.35658014     0.10130
Cu1967     Cu  0.02848602  0.24127960  0.42551787     0.44170
Cu1968     Cu  0.08216010  0.25089752  0.40725529     0.41990
Cu1969     Cu  0.06387684  0.26296014  0.46026806     0.43880
N1970       N  0.02023663  0.24807041  0.45583290    -0.33490
N1971       N  0.03335549  0.25745288  0.46869671    -0.27740
C1972       C  0.02381130  0.26086945  0.48708755    -0.03840
C1973       C  0.00362475  0.25316580  0.48566200     0.08370
C1974       C  0.00190065  0.24514883  0.46558644     0.02170
H1975       H  0.03122792  0.26785178  0.50062752     0.09820
H1976       H  0.98831450  0.23795718  0.45848715     0.08900
N1977       N  0.09476770  0.25936945  0.45206818    -0.34940
N1978       N  0.10202322  0.25426159  0.43337070    -0.27120
C1979       C  0.12283704  0.25077271  0.43512745    -0.02360
C1980       C  0.12864512  0.25361710  0.45597158     0.06250
C1981       C  0.11041414  0.25926531  0.46600251     0.04350
H1982       H  0.13277426  0.24564999  0.42243744     0.09450
H1983       H  0.10842090  0.26252922  0.48249459     0.08290
N1984       N  0.84621754  0.16348584  0.52518532    -0.26100
N1985       N  0.85299223  0.18220339  0.53088779    -0.33960
C1986       C  0.83687536  0.19552294  0.53151383     0.02240
C1987       C  0.81903016  0.18484992  0.52588037     0.08260
C1988       C  0.82536627  0.16446990  0.52214957    -0.04840
H1989       H  0.83829849  0.21212747  0.53454487     0.08930
H1990       H  0.81586797  0.15176997  0.51621695     0.10130
Cu1991     Cu  0.88368487  0.19143943  0.53301797     0.44170
Cu1992     Cu  0.86624981  0.13873173  0.51878174     0.41990
Cu1993     Cu  0.91849965  0.15869787  0.50690590     0.43880
N1994       N  0.91325367  0.20109945  0.52510880    -0.33490
N1995       N  0.92599289  0.18906530  0.51426711    -0.27740
C1996       C  0.94366971  0.19960590  0.51025352    -0.03840
C1997       C  0.94190942  0.21934167  0.51903654     0.08370
C1998       C  0.92237945  0.21973541  0.52835040     0.02170
H1999       H  0.95689562  0.19319643  0.50189322     0.09820
H2000       H  0.91511312  0.23268648  0.53646952     0.08900
N2001       N  0.91067270  0.12755150  0.50820667    -0.34940
N2002       N  0.89202689  0.11990661  0.51280838    -0.27120
C2003       C  0.89360126  0.09896511  0.51477999    -0.02360
C2004       C  0.91428500  0.09343078  0.51154754     0.06250
C2005       C  0.92454351  0.11189814  0.50728013     0.04350
H2006       H  0.88094649  0.08874868  0.51940671     0.09450
H2007       H  0.94109797  0.11397895  0.50452357     0.08290
C2008       C  0.96132230  0.25006615  0.75437573     0.03470
C2009       C  0.96223052  0.23479813  0.77036097     0.03470
C2010       C  0.97775419  0.23610574  0.78600381     0.03470
C2011       C  0.99296506  0.25201493  0.78521674     0.03470
C2012       C  0.99219451  0.26723570  0.76919324     0.03470
C2013       C  0.97660349  0.26609837  0.75345867     0.03470
N2014       N  0.06368177  0.38388910  0.02167380    -0.26100
N2015       N  0.04527912  0.37631480  0.02733145    -0.33960
C2016       C  0.03100218  0.39160739  0.02738327     0.02240
C2017       C  0.04032575  0.41002473  0.02118476     0.08260
C2018       C  0.06126231  0.40466382  0.01792994    -0.04840
H2019       H  0.01470374  0.38919296  0.03115084     0.08930
H2020       H  0.07354877  0.41488398  0.01241746     0.10130
Cu2021     Cu  0.03723364  0.34543756  0.03111613     0.44170
Cu2022     Cu  0.09032237  0.36425058  0.01825315     0.41990
Cu2023     Cu  0.07175086  0.31066284  0.00967411     0.43880
N2024       N  0.02841262  0.31521724  0.02468486    -0.33490
N2025       N  0.04144425  0.30222958  0.01545571    -0.27740
C2026       C  0.03180399  0.28391858  0.01200716    -0.03840
C2027       C  0.01154839  0.28553111  0.01943567     0.08370
C2028       C  0.00993328  0.30564606  0.02739707     0.02170
H2029       H  0.03916956  0.27038436  0.00500520     0.09820
H2030       H  0.99631470  0.31294096  0.03427422     0.08900
N2031       N  0.10259574  0.31876399  0.01253321    -0.34940
N2032       N  0.11025625  0.33769402  0.01599931    -0.27120
C2033       C  0.13121026  0.33575886  0.01885540    -0.02360
C2034       C  0.13651336  0.31459415  0.01742568     0.06250
C2035       C  0.11793974  0.30456096  0.01327918     0.04350
H2036       H  0.14163416  0.34857748  0.02252828     0.09450
H2037       H  0.11557553  0.28789836  0.01137993     0.08290
C2038       C  0.99532778  0.26916560  0.01909710     0.04320
C2039       C  0.97896196  0.26948209  0.03365743    -0.11830
C2040       C  0.96376874  0.25366076  0.03363846     0.01820
C2041       C  0.96511653  0.23736313  0.01901650    -0.10360
C2042       C  0.98128564  0.23702406  0.00430794     0.04310
C2043       C  0.99627293  0.25297150  0.00432265    -0.09780
H2044       H  0.97807447  0.28199409  0.04504640     0.09900
H2045       H  0.95355216  0.22498594  0.01896997     0.07430
H2046       H  0.00871434  0.25266216  0.99285605     0.07280
N2047       N  0.98066529  0.16820071  0.89014021    -0.26100
N2048       N  0.98493582  0.18715161  0.89730941    -0.33960
C2049       C  0.98438707  0.20090340  0.88153982     0.02240
C2050       C  0.97959412  0.19032138  0.86337864     0.08260
C2051       C  0.97751278  0.16950277  0.86926139    -0.04840
H2052       H  0.98702116  0.21754092  0.88329072     0.08930
H2053       H  0.97331978  0.15646892  0.85929029     0.10130
Cu2054     Cu  0.98936418  0.19537331  0.92803096     0.44170
Cu2055     Cu  0.97810887  0.14221857  0.90988925     0.41990
Cu2056     Cu  0.97597967  0.15863326  0.96534078     0.43880
N2057       N  0.98626509  0.20327378  0.95895459    -0.33490
N2058       N  0.97993382  0.18958985  0.97299901    -0.27740
C2059       C  0.97726799  0.19934109  0.99142560    -0.03840
C2060       C  0.98239979  0.22019370  0.98871897     0.08370
C2061       C  0.98808617  0.22214881  0.96796185     0.02170
H2062       H  0.97209325  0.19181360  0.00567028     0.09820
H2063       H  0.99243407  0.23633582  0.95982113     0.08900
N2064       N  0.97698314  0.12816003  0.95508671    -0.34940
N2065       N  0.97739211  0.12169746  0.93539375    -0.27120
C2066       C  0.97861580  0.10059426  0.93530308    -0.02360
C2067       C  0.97938690  0.09380025  0.95590317     0.06250
C2068       C  0.97827130  0.11164567  0.96789795     0.04350
H2069       H  0.97959584  0.09102163  0.92136793     0.09450
H2070       H  0.97854154  0.11260997  0.98481128     0.08290
N2071       N  0.89195621  0.25649466  0.14531786    -0.26100
N2072       N  0.91071755  0.26185474  0.13849796    -0.33960
C2073       C  0.92423166  0.26189302  0.15451251     0.02240
C2074       C  0.91359756  0.25639506  0.17238545     0.08260
C2075       C  0.89307503  0.25324481  0.16615031    -0.04840
H2076       H  0.94079569  0.26500737  0.15307403     0.08930
H2077       H  0.88023545  0.24793392  0.17577582     0.10130
Cu2078     Cu  0.91924519  0.26563694  0.10781173     0.44170
Cu2079     Cu  0.86679683  0.25131888  0.12527110     0.41990
Cu2080     Cu  0.88650178  0.24019429  0.07255201     0.43880
N2081       N  0.92844817  0.25924405  0.07778366    -0.33490
N2082       N  0.91651761  0.24852618  0.06480342    -0.27740
C2083       C  0.92703915  0.24505312  0.04698687    -0.03840
C2084       C  0.94662959  0.25406697  0.04896356     0.08370
C2085       C  0.94696257  0.26297138  0.06870373     0.02170
H2086       H  0.92081753  0.23669965  0.03362443     0.09820
H2087       H  0.95989612  0.27088800  0.07623702     0.08900
N2088       N  0.85544892  0.24106898  0.08068195    -0.34940
N2089       N  0.84784248  0.24569920  0.09936116    -0.27120
C2090       C  0.82693352  0.24796627  0.09770398    -0.02360
C2091       C  0.82140338  0.24486768  0.07694398     0.06250
C2092       C  0.83982562  0.24033923  0.06675484     0.04350
H2093       H  0.81677814  0.25284217  0.11031964     0.09450
H2094       H  0.84194458  0.23779621  0.05014616     0.08290
N2095       N  0.38820057  0.24692280  0.64814646    -0.26100
N2096       N  0.40648714  0.25304761  0.64073073    -0.33960
C2097       C  0.42060397  0.25367876  0.65617065     0.02240
C2098       C  0.41113354  0.24762114  0.67451498     0.08260
C2099       C  0.39039246  0.24364269  0.66900140    -0.04840
H2100       H  0.43685345  0.25782839  0.65399803     0.08930
H2101       H  0.37812036  0.23803431  0.67918193     0.10130
Cu2102     Cu  0.41401568  0.25751094  0.60995554     0.44170
Cu2103     Cu  0.36235568  0.24237210  0.62801122     0.41990
Cu2104     Cu  0.38046556  0.23845140  0.57261173     0.43880
N2105       N  0.42369562  0.25274240  0.57983912    -0.33490
N2106       N  0.41131152  0.24434329  0.56565217    -0.27740
C2107       C  0.42214428  0.24146582  0.54786623    -0.03840
C2108       C  0.44236432  0.24854988  0.55119952     0.08370
C2109       C  0.44275549  0.25558583  0.57166411     0.02170
H2110       H  0.41572191  0.23498946  0.53358573     0.09820
H2111       H  0.45600933  0.26177393  0.58020106     0.08900
N2112       N  0.34969776  0.23908042  0.58210984    -0.34940
N2113       N  0.34257012  0.24036172  0.60154104    -0.27120
C2114       C  0.32145990  0.24176641  0.60067784    -0.02360
C2115       C  0.31537270  0.24167352  0.57976862     0.06250
C2116       C  0.33366465  0.23991859  0.56861808     0.04350
H2117       H  0.31141054  0.24369370  0.61414047     0.09450
H2118       H  0.33529228  0.23980692  0.55175839     0.08290
N2119       N  0.56231658  0.37777048  0.53126017    -0.26100
N2120       N  0.54352603  0.37075899  0.53638060    -0.33960
C2121       C  0.52974852  0.38651600  0.53560463     0.02240
C2122       C  0.53997681  0.40449107  0.52947112     0.08260
C2123       C  0.56075332  0.39848032  0.52709223    -0.04840
H2124       H  0.51318707  0.38471463  0.53848949     0.08930
H2125       H  0.57350475  0.40814070  0.52162477     0.10130
Cu2126     Cu  0.53457302  0.33997029  0.54011172     0.44170
Cu2127     Cu  0.58847527  0.35801932  0.52802821     0.41990
Cu2128     Cu  0.56963544  0.30490488  0.51934354     0.43880
N2129       N  0.52589639  0.30963169  0.53336800    -0.33490
N2130       N  0.53919197  0.29665829  0.52447781    -0.27740
C2131       C  0.52949166  0.27860071  0.52000825    -0.03840
C2132       C  0.50891329  0.28031257  0.52638796     0.08370
C2133       C  0.50717268  0.30022172  0.53487926     0.02170
H2134       H  0.53693733  0.26526009  0.51272345     0.09820
H2135       H  0.49323421  0.30758801  0.54100230     0.08900
N2136       N  0.60052718  0.31305581  0.52067216    -0.34940
N2137       N  0.60820147  0.33192745  0.52429012    -0.27120
C2138       C  0.62925956  0.33028265  0.52578035    -0.02360
C2139       C  0.63470320  0.30932038  0.52322351     0.06250
C2140       C  0.61605491  0.29910210  0.51983135     0.04350
H2141       H  0.63969391  0.34316652  0.52918190     0.09450
H2142       H  0.61377051  0.28252507  0.51724180     0.08290
N2143       N  0.48756494  0.11987261  0.43562454    -0.26100
N2144       N  0.48446351  0.12591256  0.45519624    -0.33960
C2145       C  0.48234878  0.10904628  0.46745644     0.02240
C2146       C  0.48409236  0.09133615  0.45523768     0.08260
C2147       C  0.48748230  0.09872813  0.43506826    -0.04840
H2148       H  0.47881031  0.10967004  0.48400359     0.08930
H2149       H  0.48846385  0.08950129  0.42090275     0.10130
Cu2150     Cu  0.48122207  0.15631628  0.46548244     0.44170
Cu2151     Cu  0.48959878  0.14103081  0.41057908     0.41990
Cu2152     Cu  0.49007158  0.19554243  0.42862042     0.43880
N2153       N  0.48080363  0.18753151  0.47349599    -0.33490
N2154       N  0.48539330  0.20224674  0.45978562    -0.27740
C2155       C  0.48518936  0.22094890  0.46938140    -0.03840
C2156       C  0.47988298  0.21777526  0.49010235     0.08370
C2157       C  0.47714645  0.19641799  0.49220681     0.02170
H2158       H  0.48830826  0.23574610  0.46177508     0.09820
H2159       H  0.47332964  0.18794049  0.50635010     0.08900
N2160       N  0.48933989  0.18656499  0.39764331    -0.34940
N2161       N  0.48928478  0.16708832  0.39057983    -0.27120
C2162       C  0.48755698  0.16762944  0.36949069    -0.02360
C2163       C  0.48613364  0.18841593  0.36326673     0.06250
C2164       C  0.48741452  0.19985007  0.38153106     0.04350
H2165       H  0.48655113  0.15395848  0.35954546     0.09450
H2166       H  0.48666397  0.21669942  0.38308057     0.08290
C2167       C  0.47820150  0.23373550  0.50655643     0.04320
C2168       C  0.46142907  0.23343756  0.52062457    -0.11830
C2169       C  0.45991199  0.24870553  0.53632957     0.01820
C2170       C  0.47545896  0.26409654  0.53803761    -0.10360
C2171       C  0.49237227  0.26440311  0.52416102     0.04310
C2172       C  0.49353847  0.24927548  0.50829336    -0.09780
H2173       H  0.44962022  0.22135114  0.51931627     0.09900
H2174       H  0.47443840  0.27580821  0.55024648     0.07430
H2175       H  0.50645054  0.24943168  0.49735073     0.07280
N2176       N  0.39591804  0.49464481  0.14352582    -0.26100
N2177       N  0.41519422  0.49223401  0.15073408    -0.33960
C2178       C  0.42883521  0.49341741  0.13491648     0.02240
C2179       C  0.41795121  0.49662673  0.11658190     0.08260
C2180       C  0.39699767  0.49714602  0.12249339    -0.04840
H2181       H  0.44562023  0.49222718  0.13672854     0.08930
H2182       H  0.38367500  0.49986176  0.11238900     0.10130
Cu2183     Cu  0.42401627  0.48900896  0.18149964     0.44170
Cu2184     Cu  0.36973412  0.49588806  0.16367434     0.41990
Cu2185     Cu  0.38715656  0.50077317  0.21882407     0.43880
N2186       N  0.43205589  0.49191324  0.21248135    -0.33490
N2187       N  0.41821726  0.49760617  0.22662833    -0.27740
C2188       C  0.42786798  0.50002051  0.24518221    -0.03840
C2189       C  0.44881910  0.49536401  0.24245438     0.08370
C2190       C  0.45092996  0.49022485  0.22154561     0.02170
H2191       H  0.42019335  0.50457530  0.25955793     0.09820
H2192       H  0.46519028  0.48619785  0.21339860     0.08900
N2193       N  0.35645409  0.49940573  0.20917175    -0.34940
N2194       N  0.34943891  0.49760266  0.18973169    -0.27120
C2195       C  0.32828800  0.49652826  0.19042931    -0.02360
C2196       C  0.32202708  0.49741269  0.21129562     0.06250
C2197       C  0.34035469  0.49935335  0.22250857     0.04350
H2198       H  0.31828529  0.49466740  0.17687887     0.09450
H2199       H  0.34197478  0.50059293  0.23932753     0.08290
N2200       N  0.61192750  0.41151218  0.27632327    -0.26100
N2201       N  0.60492730  0.43069710  0.27986667    -0.33960
C2202       C  0.62093140  0.44414968  0.27966418     0.02240
C2203       C  0.63902289  0.43315763  0.27586970     0.08260
C2204       C  0.63290840  0.41240931  0.27397629    -0.04840
H2205       H  0.61936319  0.46093074  0.28136475     0.08930
H2206       H  0.64275663  0.39920211  0.27009341     0.10130
Cu2207     Cu  0.57427272  0.44008634  0.28204260     0.44170
Cu2208     Cu  0.59203104  0.38572247  0.27266964     0.41990
Cu2209     Cu  0.53815425  0.40426140  0.26489003     0.43880
N2210       N  0.54363881  0.44847961  0.27721123    -0.33490
N2211       N  0.53006267  0.43493831  0.26966278    -0.27740
C2212       C  0.51153646  0.44443875  0.26696974    -0.03840
C2213       C  0.51361456  0.46505937  0.27326280     0.08370
C2214       C  0.53420412  0.46708942  0.27970467     0.02170
H2215       H  0.49756008  0.43678733  0.26125056     0.09820
H2216       H  0.54186995  0.48108079  0.28537777     0.08900
N2217       N  0.54695910  0.37341885  0.26618581    -0.34940
N2218       N  0.56609420  0.36603454  0.26902272    -0.27120
C2219       C  0.56497754  0.34494401  0.27035639    -0.02360
C2220       C  0.54411351  0.33917037  0.26858957     0.06250
C2221       C  0.53331108  0.35759079  0.26588306     0.04350
H2222       H  0.57815729  0.33472445  0.27327331     0.09450
H2223       H  0.51656548  0.35945623  0.26427958     0.08290
N2224       N  0.47660902  0.62922390  0.35594192    -0.26100
N2225       N  0.47568748  0.62223693  0.33643842    -0.33960
C2226       C  0.47629214  0.63840795  0.32315354     0.02240
C2227       C  0.47753383  0.65665376  0.33454169     0.08260
C2228       C  0.47753102  0.65038783  0.35537901    -0.04840
H2229       H  0.47610532  0.63693772  0.30627506     0.08930
H2230       H  0.47885351  0.66036659  0.36900094     0.10130
Cu2231     Cu  0.47511270  0.59148173  0.32682466     0.44170
Cu2232     Cu  0.47827437  0.60897532  0.38188066     0.41990
Cu2233     Cu  0.49175851  0.55601389  0.36363958     0.43880
N2234       N  0.47986398  0.56058347  0.31914704    -0.33490
N2235       N  0.48744079  0.54734022  0.33302571    -0.27740
C2236       C  0.48961928  0.52843919  0.32413031    -0.03840
C2237       C  0.48288940  0.52990159  0.30359329     0.08370
C2238       C  0.47676981  0.55051803  0.30093458     0.02170
H2239       H  0.49505119  0.51456845  0.33219625     0.09820
H2240       H  0.47074754  0.55770763  0.28682233     0.08900
N2241       N  0.48715531  0.56419178  0.39434491    -0.34940
N2242       N  0.48174727  0.58282117  0.40160423    -0.27120
C2243       C  0.47813755  0.58100601  0.42239348    -0.02360
C2244       C  0.48115419  0.56019589  0.42809421     0.06250
C2245       C  0.48700958  0.55022438  0.40991800     0.04350
H2246       H  0.47290665  0.59362854  0.43238653     0.09450
H2247       H  0.49047495  0.53376511  0.40794532     0.08290
C2248       C  0.49731551  0.48133161  0.27316929     0.04320
C2249       C  0.48120108  0.48074727  0.25827534    -0.11830
C2250       C  0.46552583  0.49606605  0.25825723     0.01820
C2251       C  0.46605867  0.51215166  0.27316010    -0.10360
C2252       C  0.48220889  0.51297031  0.28801440     0.04310
C2253       C  0.49774502  0.49748952  0.28800065    -0.09780
H2254       H  0.48081987  0.46837456  0.24667758     0.09900
H2255       H  0.45397126  0.52404318  0.27313530     0.07430
H2256       H  0.51017212  0.49804097  0.29953947     0.07280
N2257       N  0.47199695  0.83314928  0.64665427    -0.26100
N2258       N  0.46843582  0.81380126  0.64013799    -0.33960
C2259       C  0.46849975  0.80074465  0.65651222     0.02240
C2260       C  0.47222287  0.81213107  0.67444104     0.08260
C2261       C  0.47419061  0.83274804  0.66773206    -0.04840
H2262       H  0.46637734  0.78398289  0.65534153     0.08930
H2263       H  0.47777480  0.84624307  0.67731774     0.10130
Cu2264     Cu  0.46559650  0.80391547  0.60963156     0.44170
Cu2265     Cu  0.47520771  0.85846304  0.62578678     0.41990
Cu2266     Cu  0.48062281  0.83924428  0.57168096     0.43880
N2267       N  0.46933958  0.79491600  0.57899368    -0.33490
N2268       N  0.47620302  0.80815113  0.56477061    -0.27740
C2269       C  0.47882642  0.79799557  0.54656225    -0.03840
C2270       C  0.47312778  0.77733242  0.54954690     0.08370
C2271       C  0.46712639  0.77591306  0.57028468     0.02170
H2272       H  0.48425525  0.80515983  0.53222630     0.09820
H2273       H  0.46216174  0.76202186  0.57857870     0.08900
N2274       N  0.47980883  0.87029746  0.58010697    -0.34940
N2275       N  0.47789770  0.87789442  0.59929474    -0.27120
C2276       C  0.47674953  0.89900625  0.59797279    -0.02360
C2277       C  0.47767705  0.90461789  0.57696106     0.06250
C2278       C  0.47968644  0.88601699  0.56626511     0.04350
H2279       H  0.47450324  0.90938482  0.61116117     0.09450
H2280       H  0.48054120  0.88396375  0.54947159     0.08290
N2281       N  0.56020171  0.74355306  0.39072485    -0.26100
N2282       N  0.54148386  0.73853667  0.39795426    -0.33960
C2283       C  0.52753184  0.73889278  0.38231248     0.02240
C2284       C  0.53763002  0.74437222  0.36410617     0.08260
C2285       C  0.55847289  0.74702170  0.36988448    -0.04840
H2286       H  0.51101740  0.73578639  0.38422197     0.08930
H2287       H  0.57118777  0.75193299  0.35988929     0.10130
Cu2288     Cu  0.53339343  0.73398861  0.42872617     0.44170
Cu2289     Cu  0.58632031  0.74711659  0.41061217     0.41990
Cu2290     Cu  0.56803569  0.75405761  0.46484390     0.43880
N2291       N  0.52486245  0.73843777  0.45936979    -0.33490
N2292       N  0.53772783  0.74724406  0.47287456    -0.27740
C2293       C  0.52775275  0.75014818  0.49111430    -0.03840
C2294       C  0.50754838  0.74269644  0.48889154     0.08370
C2295       C  0.50626736  0.73532637  0.46855445     0.02170
H2296       H  0.53470743  0.75712126  0.50490346     0.09820
H2297       H  0.49264753  0.72897503  0.46074754     0.08900
N2298       N  0.59886172  0.75352220  0.45589660    -0.34940
N2299       N  0.60619511  0.75061264  0.43675176    -0.27120
C2300       C  0.62728582  0.74916589  0.43797160    -0.02360
C2301       C  0.63314616  0.75097947  0.45889314     0.06250
C2302       C  0.61470322  0.75387920  0.46959022     0.04350
H2303       H  0.63746064  0.74607807  0.42482234     0.09450
H2304       H  0.61279154  0.75552914  0.48633680     0.08290
C2305       C  0.45877514  0.72870046  0.51913917     0.04320
C2306       C  0.45829743  0.74485397  0.53398543    -0.11830
C2307       C  0.47379536  0.76033315  0.53406643     0.01820
C2308       C  0.48993016  0.75954518  0.51929595    -0.10360
C2309       C  0.49065866  0.74337488  0.50448667     0.04310
C2310       C  0.47502251  0.72801531  0.50445373    -0.09780
H2311       H  0.44583644  0.74545667  0.54542892     0.09900
H2312       H  0.50188863  0.77154568  0.51933073     0.07430
H2313       H  0.47546752  0.71557504  0.49294172     0.07280
N2314       N  0.38889428  0.61429350  0.51531557    -0.26100
N2315       N  0.40798866  0.62170893  0.51232731    -0.33960
C2316       C  0.42192561  0.60612442  0.51320326     0.02240
C2317       C  0.41152537  0.58767279  0.51684308     0.08260
C2318       C  0.39045529  0.59326533  0.51792542    -0.04840
H2319       H  0.43864966  0.60821515  0.51174704     0.08930
H2320       H  0.37743718  0.58298083  0.52119280     0.10130
Cu2321     Cu  0.41672338  0.65243035  0.50954009     0.44170
Cu2322     Cu  0.36248526  0.63444458  0.51725957     0.41990
Cu2323     Cu  0.38120687  0.68844456  0.52638905     0.43880
N2324       N  0.42538467  0.68287976  0.51455624    -0.33490
N2325       N  0.41196137  0.69652980  0.52212242    -0.27740
C2326       C  0.42165690  0.71493564  0.52502993    -0.03840
C2327       C  0.44228233  0.71264324  0.51887736     0.08370
C2328       C  0.44409501  0.69208438  0.51229162     0.02170
H2329       H  0.41414510  0.72897539  0.53077585     0.09820
H2330       H  0.45800615  0.68426706  0.50667950     0.08900
N2331       N  0.35035750  0.68006799  0.52324957    -0.34940
N2332       N  0.34273760  0.66114129  0.51960214    -0.27120
C2333       C  0.32175999  0.66302181  0.51688427    -0.02360
C2334       C  0.31635269  0.68413289  0.51861215     0.06250
C2335       C  0.33492246  0.69419204  0.52279372     0.04350
H2336       H  0.31137177  0.65018965  0.51315640     0.09450
H2337       H  0.33721723  0.71082777  0.52498277     0.08290
C2338       C  0.47674997  0.76551500  0.25657793     0.03470
C2339       C  0.46090470  0.75014134  0.25408162     0.03470
C2340       C  0.45959913  0.73202206  0.26768967     0.03470
C2341       C  0.47483000  0.73128213  0.28457906     0.03470
C2342       C  0.49048279  0.74703397  0.28675368     0.03470
C2343       C  0.49195622  0.76338326  0.27219756     0.03470
C2344       C  0.24230410  0.01615917  0.26570946     0.03470
C2345       C  0.22633297  0.01717564  0.28056650     0.03470
C2346       C  0.21129999  0.00080605  0.28218330     0.03470
C2347       C  0.21171118  0.98285018  0.26822621     0.03470
C2348       C  0.22734923  0.98363243  0.25182891     0.03470
C2349       C  0.24214950  0.00018905  0.25075558     0.03470
N2350       N  0.60794455  0.99551639  0.35094000    -0.26100
N2351       N  0.59931521  0.99833343  0.33239118    -0.33960
C2352       C  0.61392898  0.99903636  0.31772750     0.02240
C2353       C  0.63343863  0.99650611  0.32674319     0.08260
C2354       C  0.62890919  0.99427967  0.34816617    -0.04840
H2355       H  0.60964310  0.00109400  0.30126561     0.08930
H2356       H  0.63985678  0.99201420  0.36086274     0.10130
Cu2357     Cu  0.56850050  0.00046500  0.32484340     0.44170
Cu2358     Cu  0.58910497  0.99404590  0.37793542     0.41990
Cu2359     Cu  0.53237095  0.00145895  0.36185248     0.43880
N2360       N  0.53781916  0.00162141  0.31649708    -0.33490
N2361       N  0.52336085  0.00291307  0.33102773    -0.27740
C2362       C  0.50444873  0.00358524  0.32184997    -0.03840
C2363       C  0.50745736  0.00228187  0.30043918     0.08370
C2364       C  0.52878979  0.00100990  0.29755737     0.02170
H2365       H  0.48970548  0.00424484  0.33009479     0.09820
H2366       H  0.53710512  0.99978619  0.28287372     0.08900
N2367       N  0.54354441  0.99695445  0.39171211    -0.34940
N2368       N  0.56311105  0.99457995  0.39824234    -0.27120
C2369       C  0.56280864  0.99219921  0.41931404    -0.02360
C2370       C  0.54211480  0.99277188  0.42586864     0.06250
C2371       C  0.53055831  0.99585445  0.40801102     0.04350
H2372       H  0.57649310  0.98983555  0.42901300     0.09450
H2373       H  0.51372868  0.99728841  0.40690128     0.08290
C2374       C  0.46073685  0.01718549  0.26768756     0.04320
C2375       C  0.47562916  0.01695265  0.28383382    -0.11830
C2376       C  0.49145080  0.00187886  0.28405003     0.01820
C2377       C  0.49221970  0.98666524  0.26833142    -0.10360
C2378       C  0.47726305  0.98654693  0.25230271     0.04310
C2379       C  0.46165162  0.00194750  0.25186777    -0.09780
H2380       H  0.47506854  0.02856396  0.29618567     0.09900
H2381       H  0.50445039  0.97490715  0.26859345     0.07430
H2382       H  0.45019298  0.00193208  0.23935020     0.07280
N2383       N  0.39186237  0.13133707  0.27319303    -0.26100
N2384       N  0.41038831  0.12359625  0.27825761    -0.33960
C2385       C  0.42458852  0.13893741  0.27864252     0.02240
C2386       C  0.41489766  0.15747530  0.27346542     0.08260
C2387       C  0.39399406  0.15222448  0.27031949    -0.04840
H2388       H  0.44107007  0.13652943  0.28165713     0.08930
H2389       H  0.38158184  0.16257078  0.26525615     0.10130
Cu2390     Cu  0.41821867  0.09257132  0.28061727     0.44170
Cu2391     Cu  0.36563961  0.11189681  0.26856891     0.41990
Cu2392     Cu  0.38380148  0.05817886  0.25746865     0.43880
N2393       N  0.42702410  0.06263966  0.27316336    -0.33490
N2394       N  0.41429078  0.04981354  0.26324361    -0.27740
C2395       C  0.42426948  0.03170205  0.25945748    -0.03840
C2396       C  0.44431992  0.03332596  0.26751468     0.08370
C2397       C  0.44552380  0.05318934  0.27607200     0.02170
H2398       H  0.41725957  0.01822989  0.25196475     0.09820
H2399       H  0.45887466  0.06037133  0.28361713     0.08900
N2400       N  0.35298813  0.06696782  0.26016826    -0.34940
N2401       N  0.34574935  0.08589967  0.26448542    -0.27120
C2402       C  0.32477881  0.08451581  0.26700909    -0.02360
C2403       C  0.31890141  0.06369790  0.26443802     0.06250
C2404       C  0.33719996  0.05324184  0.25999864     0.04350
H2405       H  0.31474514  0.09743908  0.27133940     0.09450
H2406       H  0.33907212  0.03660939  0.25740333     0.08290
N2407       N  0.48308125  0.91449376  0.13834689    -0.26100
N2408       N  0.48253834  0.93413486  0.14495347    -0.33960
C2409       C  0.48251616  0.94713953  0.12855886     0.02240
C2410       C  0.48265803  0.93556388  0.11036074     0.08260
C2411       C  0.48315281  0.91477467  0.11709884    -0.04840
H2412       H  0.48121359  0.96397869  0.12985088     0.08930
H2413       H  0.48230139  0.90096633  0.10733314     0.10130
Cu2414     Cu  0.47912767  0.94459078  0.17520731     0.44170
Cu2415     Cu  0.48227934  0.88879166  0.15944662     0.41990
Cu2416     Cu  0.48367003  0.90818410  0.21393237     0.43880
N2417       N  0.47813017  0.95338250  0.20612681    -0.33490
N2418       N  0.48110942  0.93939107  0.22096713    -0.27740
C2419       C  0.48124159  0.94897871  0.23965209    -0.03840
C2420       C  0.47787191  0.97008169  0.23630877     0.08370
C2421       C  0.47586519  0.97238685  0.21486998     0.02170
H2422       H  0.48336762  0.94115745  0.25452777     0.09820
H2423       H  0.47357327  0.98679658  0.20627214     0.08900
N2424       N  0.48204575  0.87721022  0.20561673    -0.34940
N2425       N  0.48154497  0.86936504  0.18643406    -0.27120
C2426       C  0.47998010  0.84825910  0.18809363    -0.02360
C2427       C  0.47915005  0.84296710  0.20928054     0.06250
C2428       C  0.48062756  0.86177520  0.21968560     0.04350
H2429       H  0.47902001  0.83762724  0.17494515     0.09450
H2430       H  0.48073420  0.86418099  0.23645297     0.08290
N2431       N  0.96703938  0.13231139  0.34906643    -0.26100
N2432       N  0.96465790  0.12590198  0.32948439    -0.33960
C2433       C  0.96525184  0.14237374  0.31656252     0.02240
C2434       C  0.96797359  0.16018926  0.32832698     0.08260
C2435       C  0.96894401  0.15339668  0.34895607    -0.04840
H2436       H  0.96440680  0.14135772  0.29966911     0.08930
H2437       H  0.97179829  0.16291223  0.36267640     0.10130
Cu2438     Cu  0.96292208  0.09546825  0.31921924     0.44170
Cu2439     Cu  0.96953862  0.11145767  0.37444095     0.41990
Cu2440     Cu  0.97563414  0.05748690  0.35546583     0.43880
N2441       N  0.96733388  0.06486029  0.31047664    -0.33490
N2442       N  0.97329652  0.05061969  0.32415923    -0.27740
C2443       C  0.97644378  0.03236677  0.31424316    -0.03840
C2444       C  0.97201654  0.03534232  0.29326163     0.08370
C2445       C  0.96621291  0.05611209  0.29139522     0.02170
H2446       H  0.98120197  0.01797111  0.32179540     0.09820
H2447       H  0.96195736  0.06435028  0.27721437     0.08900
N2448       N  0.97398193  0.06587863  0.38646212    -0.34940
N2449       N  0.97203165  0.08507746  0.39400325    -0.27120
C2450       C  0.97104143  0.08382739  0.41512551    -0.02360
C2451       C  0.97207550  0.06283398  0.42079015     0.06250
C2452       C  0.97399479  0.05208479  0.40221544     0.04350
H2453       H  0.96905253  0.09706840  0.42549106     0.09450
H2454       H  0.97520119  0.03530793  0.40022133     0.08290
C2455       C  0.97304195  0.01964194  0.27651497     0.04320
C2456       C  0.95780226  0.01939862  0.26073374    -0.11830
C2457       C  0.95836251  0.00413401  0.24499260     0.01820
C2458       C  0.97444658  0.98923293  0.24501306    -0.10360
C2459       C  0.98985637  0.98945400  0.26063250     0.04310
C2460       C  0.98906485  0.00466969  0.27640853    -0.09780
H2461       H  0.94542458  0.03098110  0.26084522     0.09900
H2462       H  0.97493965  0.97736718  0.23291608     0.07430
H2463       H  0.00082440  0.00481574  0.28864409     0.07280
N2464       N  0.88934764  0.99434408  0.13052802    -0.26100
N2465       N  0.90836275  0.99123321  0.13814671    -0.33960
C2466       C  0.92229041  0.99146403  0.12257768     0.02240
C2467       C  0.91182195  0.99478642  0.10407067     0.08260
C2468       C  0.89085428  0.99641513  0.10950336    -0.04840
H2469       H  0.93903367  0.99020908  0.12472828     0.08930
H2470       H  0.87791364  0.99996152  0.09916056     0.10130
Cu2471     Cu  0.91684230  0.99015037  0.16907228     0.44170
Cu2472     Cu  0.86315627  0.99788029  0.15004589     0.41990
Cu2473     Cu  0.88119275  0.01018470  0.20367189     0.43880
N2474       N  0.92527145  0.99748141  0.19913883    -0.33490
N2475       N  0.91188627  0.00618353  0.21212668    -0.27740
C2476       C  0.92151756  0.01014954  0.23039441    -0.03840
C2477       C  0.94206186  0.00351474  0.22870604     0.08370
C2478       C  0.94389021  0.99555740  0.20864081     0.02170
H2479       H  0.91396936  0.01681058  0.24399422     0.09820
H2480       H  0.95771825  0.98908976  0.20136665     0.08900
N2481       N  0.85055277  0.00628933  0.19491565    -0.34940
N2482       N  0.84336060  0.00168604  0.17600911    -0.27120
C2483       C  0.82248626  0.99856975  0.17742642    -0.02360
C2484       C  0.81670864  0.00107541  0.19823015     0.06250
C2485       C  0.83484913  0.00598642  0.20868913     0.04350
H2486       H  0.81250789  0.99385821  0.16456723     0.09450
H2487       H  0.83667302  0.00847804  0.22535268     0.08290
N2488       N  0.05775653  0.87459086  0.25770747    -0.26100
N2489       N  0.03873193  0.88185635  0.25407458    -0.33960
C2490       C  0.02494566  0.86610155  0.25472703     0.02240
C2491       C  0.03557092  0.84780012  0.25897040     0.08260
C2492       C  0.05646439  0.85365502  0.26058490    -0.04840
H2493       H  0.00822785  0.86799414  0.25289476     0.08930
H2494       H  0.06951865  0.84365706  0.26462300     0.10130
Cu2495     Cu  0.03089201  0.91292146  0.25143895     0.44170
Cu2496     Cu  0.08349784  0.89478286  0.26093049     0.41990
Cu2497     Cu  0.06740306  0.94949107  0.27073383     0.43880
N2498       N  0.02342612  0.94377126  0.25644115    -0.33490
N2499       N  0.03668647  0.95727839  0.26468763    -0.27740
C2500       C  0.02689094  0.97567376  0.26752901    -0.03840
C2501       C  0.00648933  0.97354507  0.26056620     0.08370
C2502       C  0.00485543  0.95312224  0.25361688     0.02170
H2503       H  0.03415102  0.98957115  0.27392547     0.09820
H2504       H  0.99106787  0.94542446  0.24750756     0.08900
N2505       N  0.09795349  0.93908809  0.27107419    -0.34940
N2506       N  0.10411422  0.91982115  0.26650295    -0.27120
C2507       C  0.12520225  0.91948097  0.26630837    -0.02360
C2508       C  0.13243972  0.93931815  0.27138358     0.06250
C2509       C  0.11477353  0.95129428  0.27422235     0.04350
H2510       H  0.13457524  0.90588099  0.26260020     0.09450
H2511       H  0.11416035  0.96790902  0.27745428     0.08290
C2512       C  0.71140652  0.99522697  0.27976066     0.03470
C2513       C  0.72642487  0.01156040  0.28042730     0.03470
C2514       C  0.74209698  0.01251973  0.26480168     0.03470
C2515       C  0.74286321  0.99723234  0.24888062     0.03470
C2516       C  0.72766931  0.98131969  0.24799398     0.03470
C2517       C  0.71233506  0.97985502  0.26372386     0.03470
C2518       C  0.20615557  0.24864453  0.50251392     0.03470
C2519       C  0.22114823  0.23241096  0.50109209     0.03470
C2520       C  0.23726129  0.23077902  0.51629045     0.03470
C2521       C  0.23881618  0.24600421  0.53237270     0.03470
C2522       C  0.22390186  0.26238678  0.53365248     0.03470
C2523       C  0.20782148  0.26387164  0.51850533     0.03470
N2524       N  0.09673316  0.25241647  0.85459452    -0.26100
N2525       N  0.10390561  0.25556438  0.83543550    -0.33960
C2526       C  0.08801885  0.25549016  0.82179246     0.02240
C2527       C  0.06971323  0.25216088  0.83256794     0.08260
C2528       C  0.07568130  0.25046980  0.85346617    -0.04840
H2529       H  0.08978943  0.25728723  0.80504566     0.08930
H2530       H  0.06562329  0.24720753  0.86665937     0.10130
Cu2531     Cu  0.13465120  0.25753325  0.82654637     0.44170
Cu2532     Cu  0.11689183  0.24925377  0.88050929     0.41990
Cu2533     Cu  0.17075571  0.23909738  0.86198540     0.43880
N2534       N  0.16513629  0.25247934  0.81803380    -0.33490
N2535       N  0.17872044  0.24435337  0.83125957    -0.27740
C2536       C  0.19709397  0.24165358  0.82147842    -0.03840
C2537       C  0.19486215  0.24856991  0.80104499     0.08370
C2538       C  0.17437440  0.25535086  0.79941556     0.02170
H2539       H  0.21106960  0.23549510  0.82880171     0.09820
H2540       H  0.16661124  0.26147182  0.78565200     0.08900
N2541       N  0.16204584  0.24164200  0.89287583    -0.34940
N2542       N  0.14311901  0.24571879  0.90018644    -0.27120
C2543       C  0.14456178  0.24823399  0.92117876    -0.02360
C2544       C  0.16540613  0.24589883  0.92702392     0.06250
C2545       C  0.17581984  0.24156694  0.90866732     0.04350
H2546       H  0.13162789  0.25235261  0.93125813     0.09450
H2547       H  0.19243619  0.23905338  0.90674888     0.08290
C2548       C  0.22540103  0.26384371  0.75279274     0.04320
C2549       C  0.21040046  0.26389275  0.76875467    -0.11830
C2550       C  0.21079603  0.24855516  0.78444547     0.01820
C2551       C  0.22638544  0.23313564  0.78413586    -0.10360
C2552       C  0.24146398  0.23291655  0.76824199     0.04310
C2553       C  0.24086536  0.24829044  0.75258755    -0.09780
H2554       H  0.19840789  0.27586706  0.76895616     0.09900
H2555       H  0.22675922  0.22129294  0.79625682     0.07430
H2556       H  0.25247308  0.24819733  0.74027200     0.07280
N2557       N  0.22675802  0.33281433  0.63745339    -0.26100
N2558       N  0.23060250  0.31385211  0.64488015    -0.33960
C2559       C  0.23038374  0.29991802  0.62925754     0.02240
C2560       C  0.22602955  0.31012971  0.61075948     0.08260
C2561       C  0.22404648  0.33115227  0.61643896    -0.04840
H2562       H  0.23286645  0.28330732  0.63140595     0.08930
H2563       H  0.22015715  0.34407555  0.60620826     0.10130
Cu2564     Cu  0.23340308  0.30516438  0.67573342     0.44170
Cu2565     Cu  0.22427634  0.35923554  0.65748993     0.41990
Cu2566     Cu  0.21595464  0.34080383  0.71162775     0.43880
N2567       N  0.22860400  0.29667863  0.70636146    -0.33490
N2568       N  0.22082297  0.31011827  0.71989544    -0.27740
C2569       C  0.21831676  0.30059188  0.73845400    -0.03840
C2570       C  0.22498229  0.28007102  0.73642283     0.08370
C2571       C  0.23142900  0.27812907  0.71583418     0.02170
H2572       H  0.21257019  0.30817876  0.75245066     0.09820
H2573       H  0.23740514  0.26424297  0.70821321     0.08900
N2574       N  0.21870265  0.37167566  0.70304512    -0.34940
N2575       N  0.22212451  0.37915655  0.68402804    -0.27120
C2576       C  0.22494386  0.40014056  0.68571096    -0.02360
C2577       C  0.22349304  0.40572102  0.70678712     0.06250
C2578       C  0.21936928  0.38723394  0.71704600     0.04350
H2579       H  0.22865482  0.41039594  0.67277296     0.09450
H2580       H  0.21748900  0.38505969  0.73373398     0.08290
N2581       N  0.31098342  0.11865401  0.77010601    -0.26100
N2582       N  0.29232817  0.12578188  0.77550195    -0.33960
C2583       C  0.27870511  0.10991996  0.77603678     0.02240
C2584       C  0.28897703  0.09175626  0.77056080     0.08260
C2585       C  0.30956380  0.09776114  0.76711507    -0.04840
H2586       H  0.26225155  0.11170194  0.77950591     0.08930
H2587       H  0.32226770  0.08790836  0.76184816     0.10130
Cu2588     Cu  0.28369165  0.15664580  0.77854931     0.44170
Cu2589     Cu  0.33662339  0.13844741  0.76540579     0.41990
Cu2590     Cu  0.31813119  0.19211504  0.75658562     0.43880
N2591       N  0.27498420  0.18704156  0.77254423    -0.33490
N2592       N  0.28773622  0.20016358  0.76309329    -0.27740
C2593       C  0.27786995  0.21845782  0.76002134    -0.03840
C2594       C  0.25785593  0.21671210  0.76803483     0.08370
C2595       C  0.25656359  0.19655273  0.77587987     0.02170
H2596       H  0.28490874  0.23209212  0.75289691     0.09820
H2597       H  0.24315671  0.18918808  0.78307543     0.08900
N2598       N  0.34903753  0.18346688  0.75845074    -0.34940
N2599       N  0.35630665  0.16437634  0.76189654    -0.27120
C2600       C  0.37726439  0.16554770  0.76437673    -0.02360
C2601       C  0.38312873  0.18640048  0.76270658     0.06250
C2602       C  0.36485785  0.19715306  0.75882805     0.04350
H2603       H  0.38727555  0.15243463  0.76819738     0.09450
H2604       H  0.36303286  0.21390613  0.75712620     0.08290
N2605       N  0.22684373  0.41636465  0.14780778    -0.26100
N2606       N  0.22829244  0.43567986  0.14051030    -0.33960
C2607       C  0.22820165  0.44931855  0.15637743     0.02240
C2608       C  0.22672552  0.43835140  0.17482419     0.08260
C2609       C  0.22607739  0.41737717  0.16895367    -0.04840
H2610       H  0.22910083  0.46612969  0.15453554     0.08930
H2611       H  0.22456734  0.40399084  0.17920305     0.10130
Cu2612     Cu  0.22933444  0.44440707  0.10976031     0.44170
Cu2613     Cu  0.22482546  0.39035710  0.12765541     0.41990
Cu2614     Cu  0.21641976  0.40769918  0.07259262     0.43880
N2615       N  0.22590554  0.45248655  0.07901144    -0.33490
N2616       N  0.21984412  0.43879536  0.06482748    -0.27740
C2617       C  0.21822669  0.44844793  0.04619835    -0.03840
C2618       C  0.22382124  0.46919821  0.04898242     0.08370
C2619       C  0.22860761  0.47121239  0.06996821     0.02170
H2620       H  0.21396992  0.44082423  0.03167669     0.09820
H2621       H  0.23349944  0.48523896  0.07810876     0.08900
N2622       N  0.21945481  0.37705602  0.08227175    -0.34940
N2623       N  0.22257300  0.37023670  0.10161703    -0.27120
C2624       C  0.22512860  0.34922187  0.10090429    -0.02360
C2625       C  0.22386286  0.34283816  0.08013029     0.06250
C2626       C  0.22014733  0.36089861  0.06894642     0.04350
H2627       H  0.22850679  0.33947316  0.11433692     0.09450
H2628       H  0.21846853  0.36231949  0.05214648     0.08290
N2629       N  0.31283970  0.63032290  0.01964140    -0.26100
N2630       N  0.29384868  0.62307344  0.01575934    -0.33960
C2631       C  0.28014047  0.63886538  0.01556568     0.02240
C2632       C  0.29071309  0.65719695  0.01941973     0.08260
C2633       C  0.31155463  0.65137204  0.02178565    -0.04840
H2634       H  0.26346761  0.63701287  0.01331429     0.08930
H2635       H  0.32455022  0.66149503  0.02566589     0.10130
Cu2636     Cu  0.28525454  0.59232301  0.01315777     0.44170
Cu2637     Cu  0.33851788  0.61005391  0.02353702     0.41990
Cu2638     Cu  0.31945307  0.55601701  0.03341792     0.43880
N2639       N  0.27641195  0.56185385  0.01743798    -0.33490
N2640       N  0.28905108  0.54811848  0.02619940    -0.27740
C2641       C  0.27901667  0.52974155  0.02803271    -0.03840
C2642       C  0.25905230  0.53216932  0.01988725     0.08370
C2643       C  0.25796208  0.55276100  0.01331671     0.02170
H2644       H  0.28585796  0.51564856  0.03447071     0.09820
H2645       H  0.24465022  0.56071117  0.00650073     0.08900
N2646       N  0.35042507  0.56482377  0.03197449    -0.34940
N2647       N  0.35785954  0.58368676  0.02771798    -0.27120
C2648       C  0.37882969  0.58213754  0.02540715    -0.02360
C2649       C  0.38459616  0.56130365  0.02811740     0.06250
C2650       C  0.36615877  0.55101551  0.03248490     0.04350
H2651       H  0.38894003  0.59497564  0.02104890     0.09450
H2652       H  0.36409868  0.53442756  0.03515463     0.08290
C2653       C  0.21066721  0.50297927  0.00235367     0.04320
C2654       C  0.20977726  0.48698632  0.01732089    -0.11830
C2655       C  0.22500913  0.48566819  0.03302618     0.01820
C2656       C  0.24119637  0.50042443  0.03374538    -0.10360
C2657       C  0.24229081  0.51641225  0.01878421     0.04310
C2658       C  0.22701154  0.51755371  0.00303646    -0.09780
H2659       H  0.19716256  0.47567491  0.01685295     0.09900
H2660       H  0.25285598  0.49950858  0.04604016     0.07430
H2661       H  0.22767939  0.52989411  0.99143191     0.07280
N2662       N  0.14163579  0.50752970  0.88740625    -0.26100
N2663       N  0.16090567  0.51017470  0.89457748    -0.33960
C2664       C  0.17451443  0.50879984  0.87876086     0.02240
C2665       C  0.16359662  0.50524031  0.86053834     0.08260
C2666       C  0.14268376  0.50468173  0.86642915    -0.04840
H2667       H  0.19131632  0.50980951  0.88052498     0.08930
H2668       H  0.12939476  0.50152723  0.85641042     0.10130
Cu2669     Cu  0.17005264  0.51331264  0.92528297     0.44170
Cu2670     Cu  0.11542090  0.50600470  0.90731233     0.41990
Cu2671     Cu  0.13297014  0.50138554  0.96203385     0.43880
N2672       N  0.17802246  0.50949327  0.95620410    -0.33490
N2673       N  0.16391501  0.50377635  0.97005109    -0.27740
C2674       C  0.17325672  0.50056530  0.98860316    -0.03840
C2675       C  0.19434270  0.50466274  0.98624255     0.08370
C2676       C  0.19685043  0.51037183  0.96551208     0.02170
H2677       H  0.16527421  0.49580321  0.00273584     0.09820
H2678       H  0.21131109  0.51420516  0.95764199     0.08900
N2679       N  0.10231591  0.50289826  0.95269744    -0.34940
N2680       N  0.09519613  0.50431031  0.93327291    -0.27120
C2681       C  0.07405648  0.50520813  0.93403246    -0.02360
C2682       C  0.06799674  0.50468657  0.95493434     0.06250
C2683       C  0.08631936  0.50316352  0.96612963     0.04350
H2684       H  0.06394184  0.50670230  0.92051869     0.09450
H2685       H  0.08797081  0.50234175  0.98297462     0.08290
C2686       C  0.24394654  0.23385659  0.02025873     0.03470
C2687       C  0.24315972  0.24976494  0.03564445     0.03470
C2688       C  0.22701923  0.26488527  0.03508618     0.03470
C2689       C  0.21126558  0.26372815  0.01956369     0.03470
C2690       C  0.21195742  0.24767396  0.00432080     0.03470
C2691       C  0.22806917  0.23246081  0.00488238     0.03470
C2692       C  0.22586251  0.73349237  0.00333226     0.03470
C2693       C  0.21004569  0.74901891  0.00428787     0.03470
C2694       C  0.21036472  0.76396400  0.02063001     0.03470
C2695       C  0.22575841  0.76274209  0.03649189     0.03470
C2696       C  0.24125208  0.74706770  0.03576636     0.03470
C2697       C  0.24111868  0.73222186  0.01938088     0.03470
N2698       N  0.31518121  0.00015554  0.14991368    -0.26100
N2699       N  0.29669495  0.99436158  0.14257218    -0.33960
C2700       C  0.28271736  0.99415884  0.15809016     0.02240
C2701       C  0.29255635  0.00005141  0.17630836     0.08260
C2702       C  0.31327815  0.00356449  0.17074197    -0.04840
H2703       H  0.26629164  0.99062612  0.15605314     0.08930
H2704       H  0.32569712  0.00915320  0.18081492     0.10130
Cu2705     Cu  0.28844560  0.99009127  0.11185685     0.44170
Cu2706     Cu  0.34093578  0.00529658  0.13009415     0.41990
Cu2707     Cu  0.31988587  0.01705423  0.07796285     0.43880
N2708       N  0.27909474  0.99585146  0.08172250    -0.33490
N2709       N  0.29078671  0.00710521  0.06908326    -0.27740
C2710       C  0.28083973  0.00959976  0.05076289    -0.03840
C2711       C  0.26176584  0.99944749  0.05204334     0.08370
C2712       C  0.26118374  0.99087253  0.07194992     0.02170
H2713       H  0.28717171  0.01799698  0.03751784     0.09820
H2714       H  0.24853843  0.98218815  0.07904769     0.08900
N2715       N  0.35101942  0.01650732  0.08530727    -0.34940
N2716       N  0.35941308  0.01126624  0.10351935    -0.27120
C2717       C  0.38025449  0.00894674  0.10073801    -0.02360
C2718       C  0.38477877  0.01272408  0.07976758     0.06250
C2719       C  0.36589214  0.01762974  0.07069599     0.04350
H2720       H  0.39102816  0.00356394  0.11265956     0.09450
H2721       H  0.36287944  0.02052952  0.05427596     0.08290
C2722       C  0.21454288  0.98187214  0.02092825     0.04320
C2723       C  0.23036710  0.98252959  0.03611714    -0.11830
C2724       C  0.24536751  0.99852009  0.03585054     0.01820
C2725       C  0.24446884  0.01383789  0.02016952    -0.10360
C2726       C  0.22896437  0.01308003  0.00470900     0.04310
C2727       C  0.21405008  0.99706115  0.00508158    -0.09780
H2728       H  0.23080131  0.97075019  0.04828931     0.09900
H2729       H  0.25582525  0.02639734  0.01990856     0.07430
H2730       H  0.20194175  0.99659683  0.99319914     0.07280
N2731       N  0.14361032  0.86882744  0.02740708    -0.26100
N2732       N  0.16257056  0.87556529  0.03234049    -0.33960
C2733       C  0.17591550  0.85942653  0.03239039     0.02240
C2734       C  0.16515379  0.84149508  0.02709564     0.08260
C2735       C  0.14457911  0.84791789  0.02425798    -0.04840
H2736       H  0.19254886  0.86088056  0.03515329     0.08930
H2737       H  0.13159446  0.83836016  0.01910464     0.10130
Cu2738     Cu  0.17212227  0.90624934  0.03499678     0.44170
Cu2739     Cu  0.11806063  0.88904413  0.02306436     0.41990
Cu2740     Cu  0.13668900  0.94263963  0.01649862     0.43880
N2741       N  0.18098136  0.93651988  0.02843523    -0.33490
N2742       N  0.16760257  0.94995849  0.02032475    -0.27740
C2743       C  0.17745294  0.96800032  0.01616666    -0.03840
C2744       C  0.19814098  0.96579388  0.02206018     0.08370
C2745       C  0.19985799  0.94563184  0.02985655     0.02170
H2746       H  0.16998433  0.98179145  0.00976823     0.09820
H2747       H  0.21380186  0.93802691  0.03573454     0.08900
N2748       N  0.10580049  0.93430357  0.01754277    -0.34940
N2749       N  0.09834214  0.91511162  0.01965253    -0.27120
C2750       C  0.07724109  0.91627386  0.02035383    -0.02360
C2751       C  0.07154185  0.93722103  0.01896314     0.06250
C2752       C  0.09002615  0.94804569  0.01716534     0.04350
H2753       H  0.06692094  0.90303561  0.02245135     0.09450
H2754       H  0.09193939  0.96482533  0.01589231     0.08290
N2755       N  0.23005241  0.12828581  0.93529514    -0.26100
N2756       N  0.23149016  0.12116838  0.95471385    -0.33960
C2757       C  0.23074874  0.13715172  0.96824404     0.02240
C2758       C  0.22886247  0.15554120  0.95719055     0.08260
C2759       C  0.22864163  0.14945560  0.93621308    -0.04840
H2760       H  0.23135640  0.13543369  0.98508817     0.08930
H2761       H  0.22689550  0.15957821  0.92275098     0.10130
Cu2762     Cu  0.23323873  0.09041393  0.96391479     0.44170
Cu2763     Cu  0.22886308  0.10777009  0.90913046     0.41990
Cu2764     Cu  0.22446833  0.05263518  0.92659224     0.43880
N2765       N  0.23064816  0.05941307  0.97191158    -0.33490
N2766       N  0.22618882  0.04505608  0.95779053    -0.27740
C2767       C  0.22447532  0.02635036  0.96723230    -0.03840
C2768       C  0.22831916  0.02920061  0.98835216     0.08370
C2769       C  0.23223609  0.05034030  0.99079034     0.02170
H2770       H  0.22131054  0.01174678  0.95925627     0.09820
H2771       H  0.23575791  0.05854019  0.00519481     0.08900
N2772       N  0.22660456  0.06200955  0.89588650    -0.34940
N2773       N  0.22785885  0.08145270  0.88879798    -0.27120
C2774       C  0.22913966  0.08058343  0.86762554    -0.02360
C2775       C  0.22905719  0.05963339  0.86148989     0.06250
C2776       C  0.22738124  0.04852323  0.87985971     0.04350
H2777       H  0.23058770  0.09408112  0.85751578     0.09450
H2778       H  0.22673802  0.03168097  0.88152233     0.08290
C2779       C  0.49324307  0.48128204  0.52133810     0.03470
C2780       C  0.47725671  0.48225056  0.53652947     0.03470
C2781       C  0.46170131  0.49787498  0.53537170     0.03470
C2782       C  0.46262078  0.51326003  0.51955253     0.03470
C2783       C  0.47878446  0.51252442  0.50448432     0.03470
C2784       C  0.49425798  0.49664138  0.50546781     0.03470
C2785       C  0.17698038  0.78324533  0.02914759     0.24780
C2786       C  0.19681298  0.78277617  0.01974846    -0.23320
C2787       C  0.20509497  0.80114645  0.01114686     0.19690
C2788       C  0.19423930  0.81996910  0.01269087     0.24730
C2789       C  0.17482683  0.82085150  0.02299293    -0.23270
C2790       C  0.16594610  0.80221700  0.03065925     0.19630
F2791       F  0.14727533  0.80261400  0.04070761    -0.13230
F2792       F  0.16880280  0.76559095  0.03762934    -0.15590
F2793       F  0.20290680  0.83744159  0.00428539    -0.15590
F2794       F  0.22416191  0.80093506  0.00182035    -0.13230
C2795       C  0.21331718  0.19750643  0.99583825     0.24780
C2796       C  0.22704862  0.21384544  0.99080112    -0.23320
C2797       C  0.24005582  0.21179378  0.97316918     0.19690
C2798       C  0.23987045  0.19324754  0.96127005     0.24730
C2799       C  0.22671180  0.17654373  0.96691722    -0.23270
C2800       C  0.21311931  0.17908860  0.98404371     0.19630
F2801       F  0.19987490  0.16346992  0.98966061    -0.13230
F2802       F  0.20062808  0.19909168  0.01278119    -0.15590
F2803       F  0.25341487  0.19112122  0.94508312    -0.15590
F2804       F  0.25331039  0.22747948  0.96785893    -0.13230
C2805       C  0.27403486  0.71307970  0.00890717     0.24780
C2806       C  0.25542296  0.71398393  0.02052867    -0.23320
C2807       C  0.25000458  0.69718645  0.03353093     0.19690
C2808       C  0.26241280  0.67927046  0.03418389     0.24730
C2809       C  0.28052554  0.67779741  0.02182015    -0.23270
C2810       C  0.28660949  0.69505205  0.00961324     0.19630
F2811       F  0.30393861  0.69393407  0.99744135    -0.13230
F2812       F  0.27963976  0.72935520  0.99648765    -0.15590
F2813       F  0.25640928  0.66304531  0.04651908    -0.15590
F2814       F  0.23213100  0.69782882  0.04495693    -0.11310
C2815       C  0.21663805  0.30411126  0.07868982     0.24780
C2816       C  0.22700230  0.32185640  0.07080884    -0.23320
C2817       C  0.23883956  0.31998117  0.05235441     0.19690
C2818       C  0.23937531  0.30113386  0.04137719     0.24730
C2819       C  0.22823388  0.28372407  0.04863918    -0.23270
C2820       C  0.21719689  0.28512166  0.06759028     0.19630
F2821       F  0.20632444  0.26839998  0.07483154    -0.13230
F2822       F  0.20493429  0.30552168  0.09633201    -0.15590
F2823       F  0.25008537  0.30009331  0.02307089    -0.15590
F2824       F  0.24963172  0.33658323  0.04468352    -0.13230
C2825       C  0.16689876  0.23992020  0.96601477     0.24780
C2826       C  0.17551290  0.24865802  0.94773703    -0.23320
C2827       C  0.19514502  0.25857773  0.94891763     0.19690
C2828       C  0.20644517  0.25868290  0.96758503     0.24730
C2829       C  0.19839794  0.24900124  0.98549967    -0.23270
C2830       C  0.17834474  0.24003072  0.98482175     0.19630
F2831       F  0.17022311  0.23075834  0.00208743    -0.13230
F2832       F  0.14801605  0.23025601  0.96538071    -0.15590
F2833       F  0.22562978  0.26778823  0.96808378    -0.15590
F2834       F  0.20355316  0.26808023  0.93189220    -0.13230
C2835       C  0.21440159  0.26776901  0.57095860     0.24780
C2836       C  0.22326130  0.27591054  0.55266472    -0.23320
C2837       C  0.23126619  0.29642749  0.55285343     0.19690
C2838       C  0.23135410  0.30819076  0.57150650     0.24730
C2839       C  0.22332953  0.29957727  0.59013094    -0.23270
C2840       C  0.21423115  0.27947886  0.58939287     0.19630
F2841       F  0.20507404  0.27105325  0.60659304    -0.13230
F2842       F  0.20596910  0.24826081  0.57095778    -0.15590
F2843       F  0.24017740  0.32750148  0.57158299    -0.15590
F2844       F  0.23949369  0.30480438  0.53518171    -0.13230
C2845       C  0.79554134  0.98427882  0.22601559     0.24780
C2846       C  0.79641064  0.99755683  0.20849036    -0.23320
C2847       C  0.77883989  0.00965813  0.20318198     0.19690
C2848       C  0.76107377  0.00939204  0.21602083     0.24730
C2849       C  0.76069333  0.99677827  0.23405382    -0.23270
C2850       C  0.77777690  0.98380620  0.23859733     0.19630
F2851       F  0.77756660  0.97136197  0.25583032    -0.13230
F2852       F  0.81223000  0.97222536  0.23132393    -0.15590
F2853       F  0.74459505  0.02192642  0.21129981    -0.15590
F2854       F  0.77943318  0.02272024  0.18644048    -0.13230
C2855       C  0.67330047  0.99300057  0.32573246     0.24780
C2856       C  0.65399621  0.99640460  0.31531735    -0.23320
C2857       C  0.65461221  0.99991549  0.29337775     0.19690
C2858       C  0.67339883  0.00054266  0.28266437     0.24730
C2859       C  0.69224378  0.99628413  0.29281069    -0.23270
C2860       C  0.69221310  0.99263515  0.31447978     0.19630
F2861       F  0.71040346  0.98858042  0.32468450    -0.13230
F2862       F  0.67408398  0.98975274  0.34668235    -0.15590
F2863       F  0.67316200  0.00538587  0.26196158    -0.15590
F2864       F  0.63727786  0.00269385  0.28155115    -0.13230
C2865       C  0.25006441  0.01298218  0.21486848     0.24780
C2866       C  0.25666526  0.00191233  0.23261827    -0.23320
C2867       C  0.27650620  0.99238189  0.23270694     0.19690
C2868       C  0.28912712  0.99308077  0.21478229     0.24730
C2869       C  0.28184164  0.00299368  0.19654400    -0.23270
C2870       C  0.26244787  0.01341494  0.19694354     0.19630
F2871       F  0.25525104  0.02364752  0.17973939    -0.13230
F2872       F  0.23118595  0.02272789  0.21468532    -0.15590
F2873       F  0.30777993  0.98293818  0.21478722    -0.15590
F2874       F  0.28330786  0.98181200  0.24982765    -0.13230
C2875       C  0.18463921  0.96092245  0.28934052     0.24780
C2876       C  0.19493799  0.96513770  0.27014586    -0.23320
C2877       C  0.18647556  0.95370804  0.25291273     0.19690
C2878       C  0.16607893  0.94589484  0.25320524     0.24730
C2879       C  0.15415869  0.94702880  0.27135018    -0.23270
C2880       C  0.16386919  0.95376080  0.28978576     0.19630
F2881       F  0.15365990  0.95236631  0.30833908    -0.13230
F2882       F  0.19532576  0.96123601  0.30761981    -0.15590
F2883       F  0.15866162  0.93555516  0.23614014    -0.15590
F2884       F  0.19870398  0.94333550  0.23948051    -0.13230
C2885       C  0.27867518  0.02269358  0.27774968     0.24780
C2886       C  0.26087022  0.03014499  0.26729902    -0.23320
C2887       C  0.26149148  0.04989682  0.25762512     0.19690
C2888       C  0.28009823  0.06162492  0.25767396     0.24730
C2889       C  0.29825941  0.05356047  0.26720515    -0.23270
C2890       C  0.29715112  0.03424302  0.27773818     0.19630
F2891       F  0.31411294  0.02634862  0.28785082    -0.13230
F2892       F  0.27826981  0.00383563  0.28755681    -0.15590
F2893       F  0.28072501  0.08017990  0.24736020    -0.15590
F2894       F  0.24438487  0.05738482  0.24749275    -0.13230
C2895       C  0.48881730  0.80483387  0.21314502     0.24780
C2896       C  0.47704257  0.82226005  0.21967028    -0.23320
C2897       C  0.46467371  0.82048991  0.23783046     0.19690
C2898       C  0.46474943  0.80210073  0.24964278     0.24730
C2899       C  0.47677602  0.78486677  0.24338056    -0.23270
C2900       C  0.48866332  0.78624663  0.22492541     0.19630
F2901       F  0.50048317  0.76978009  0.21862775    -0.13230
F2902       F  0.50127069  0.80614316  0.19602511    -0.15590
F2903       F  0.45329461  0.80120622  0.26749316    -0.15590
F2904       F  0.45246971  0.83665664  0.24424327    -0.13230
C2905       C  0.43984110  0.56617314  0.53293028     0.24780
C2906       C  0.42206293  0.56721215  0.51990830    -0.23320
C2907       C  0.41672938  0.54966028  0.50772629     0.19690
C2908       C  0.42966458  0.53184232  0.50770778     0.24730
C2909       C  0.44787802  0.53131072  0.52009471    -0.23270
C2910       C  0.45252994  0.54837827  0.53307892     0.19630
F2911       F  0.46988419  0.54807464  0.54537252    -0.13230
F2912       F  0.44523425  0.58268801  0.54519464    -0.15590
F2913       F  0.42478951  0.51540229  0.49517003    -0.15590
F2914       F  0.39980097  0.55028264  0.49489314    -0.13230
C2915       C  0.52421109  0.73912345  0.30641972     0.24780
C2916       C  0.50397526  0.74784660  0.30590101    -0.23320
C2917       C  0.49604647  0.75735618  0.32400246     0.19690
C2918       C  0.50754274  0.75715121  0.34261788     0.24730
C2919       C  0.52727811  0.74738833  0.34353861    -0.23270
C2920       C  0.53577811  0.73888691  0.32513272     0.19630
F2921       F  0.55473371  0.72932503  0.32552983    -0.13230
F2922       F  0.53254611  0.73027886  0.28904879    -0.15590
F2923       F  0.49928789  0.76644785  0.35984386    -0.15590
F2924       F  0.47690146  0.76655514  0.32369829    -0.13230
C2925       C  0.46926656  0.52945025  0.44888902     0.24780
C2926       C  0.47800886  0.54968015  0.44848959    -0.23320
C2927       C  0.48546701  0.55850396  0.46726232     0.19690
C2928       C  0.48531012  0.54674085  0.48583147     0.24730
C2929       C  0.47765263  0.52612755  0.48574081    -0.23270
C2930       C  0.46919385  0.51780017  0.46730666     0.19630
F2931       F  0.46121551  0.49809994  0.46710366    -0.13230
F2932       F  0.46090417  0.52081024  0.43134298    -0.15590
F2933       F  0.49328748  0.55513906  0.50365083    -0.15590
F2934       F  0.49397332  0.57795844  0.46737516    -0.13230
C2935       C  0.49378106  0.68086142  0.30897601     0.24780
C2936       C  0.47932149  0.67772898  0.32520807    -0.23320
C2937       C  0.46459421  0.69347222  0.32963358     0.19690
C2938       C  0.46325356  0.71131108  0.31680455     0.24730
C2939       C  0.47657900  0.71342083  0.29943732    -0.23270
C2940       C  0.49253710  0.69859554  0.29633024     0.19630
F2941       F  0.50546091  0.70017724  0.27957485    -0.13230
F2942       F  0.50841815  0.66609243  0.30458739    -0.15590
F2943       F  0.44841687  0.72598603  0.32068874    -0.15590
F2944       F  0.45061292  0.69086487  0.34536634    -0.13230
C2945       C  0.53887322  0.44399344  0.53060693     0.24780
C2946       C  0.52973265  0.42480993  0.52473932    -0.23320
C2947       C  0.50964508  0.42493955  0.51563073     0.19690
C2948       C  0.49841388  0.44354144  0.51375851     0.24730
C2949       C  0.50696686  0.46247686  0.52077854    -0.23270
C2950       C  0.52749724  0.46274462  0.52870119     0.19630
F2951       F  0.53611075  0.48094710  0.53544904    -0.13230
F2952       F  0.55824897  0.44444094  0.53930417    -0.15590
F2953       F  0.47878995  0.44302388  0.50559876    -0.15590
F2954       F  0.50070600  0.40697499  0.50862532    -0.13230
C2955       C  0.29178583  0.25978248  0.55460497     0.24780
C2956       C  0.29445486  0.24460078  0.57032420    -0.23320
C2957       C  0.27797938  0.23073613  0.57472135     0.19690
C2958       C  0.25948022  0.23144016  0.56283932     0.24730
C2959       C  0.25727072  0.24610801  0.54656904    -0.23270
C2960       C  0.27336207  0.26054701  0.54288686     0.19630
F2961       F  0.27163357  0.27472972  0.52714794    -0.13230
F2962       F  0.30732285  0.27357193  0.55021306    -0.15590
F2963       F  0.24403654  0.21741789  0.56671143    -0.15590
F2964       F  0.28032920  0.21571484  0.58956123    -0.13230
C2965       C  0.17503645  0.31032028  0.01000484     0.24780
C2966       C  0.15684048  0.30370101  0.02041813    -0.23320
C2967       C  0.15736754  0.28474249  0.03170200     0.19690
C2968       C  0.17524927  0.27218490  0.03167436     0.24730
C2969       C  0.19300248  0.27820691  0.02036973    -0.23270
C2970       C  0.19298625  0.29756536  0.00987157     0.19630
F2971       F  0.21008679  0.30376258  0.99898452    -0.13230
F2972       F  0.17502342  0.32846011  0.99896041    -0.15590
F2973       F  0.17507879  0.25376772  0.04228639    -0.15590
F2974       F  0.14036964  0.27816709  0.04257314    -0.13230
C2975       C  0.02870212  0.23869261  0.79234302     0.24780
C2976       C  0.01164241  0.25068696  0.79904771    -0.23320
C2977       C  0.01285609  0.26140668  0.81824917     0.19690
C2978       C  0.03143559  0.26098422  0.83002665     0.24730
C2979       C  0.04890983  0.24984266  0.82266633    -0.23270
C2980       C  0.04712189  0.23820457  0.80403437     0.19630
F2981       F  0.06340091  0.22655314  0.79693953    -0.13230
F2982       F  0.02765634  0.22785450  0.77407536    -0.15590
F2983       F  0.03275627  0.27240601  0.84789928    -0.15590
F2984       F  0.99633290  0.27270699  0.82525903    -0.13230
C2985       C  0.98650603  0.20317907  0.80598860     0.24780
C2986       C  0.97644657  0.22270449  0.80488148    -0.23320
C2987       C  0.96584785  0.23043413  0.82242528     0.19690
C2988       C  0.96606961  0.21931935  0.84117926     0.24730
C2989       C  0.97677753  0.20013108  0.84266130    -0.23270
C2990       C  0.98648605  0.19181793  0.82476851     0.19630
F2991       F  0.99704957  0.17341658  0.82584056    -0.13230
F2992       F  0.99701989  0.19556618  0.78921216    -0.15590
F2993       F  0.95603956  0.22749051  0.85802727    -0.15590
F2994       F  0.95588357  0.24919497  0.82153974    -0.13230
C2995       C  0.14963491  0.24201044  0.48692353     0.24780
C2996       C  0.14914012  0.25017782  0.46643158    -0.23320
C2997       C  0.16808343  0.25630009  0.45702957     0.19690
C2998       C  0.18691854  0.25541470  0.46842131     0.24730
C2999       C  0.18699640  0.24826424  0.48924093    -0.23270
C3000       C  0.16830942  0.24117183  0.49816781     0.19630
F3001       F  0.16817089  0.23351404  0.51799989    -0.13230
F3002       F  0.13199824  0.23469271  0.49617060    -0.15590
F3003       F  0.20489936  0.26213158  0.45941466    -0.15590
F3004       F  0.16821884  0.26408724  0.43726715    -0.13230
C3005       C  0.97128718  0.31210495  0.71542655     0.24780
C3006       C  0.97606253  0.30227276  0.69626072    -0.23320
C3007       C  0.98283894  0.28124265  0.69664695     0.19690
C3008       C  0.98370275  0.27008418  0.71540496     0.24730
C3009       C  0.97778402  0.27947418  0.73432045    -0.23270
C3010       C  0.97194126  0.30072232  0.73429860     0.19630
F3011       F  0.96597641  0.31019017  0.75232821    -0.13230
F3012       F  0.96493425  0.33236689  0.71580340    -0.15590
F3013       F  0.98993232  0.24975995  0.71505915    -0.15590
F3014       F  0.98875202  0.27130489  0.67883183    -0.13230
C3015       C  0.95805708  0.21617318  0.31209478     0.24780
C3016       C  0.97299660  0.21850972  0.29613267    -0.23320
C3017       C  0.98769948  0.20258118  0.29275070     0.19690
C3018       C  0.98687325  0.18413383  0.30438717     0.24730
C3019       C  0.97126178  0.18125350  0.31955700    -0.23270
C3020       C  0.95713236  0.19756189  0.32370070     0.19630
F3021       F  0.94159457  0.19488761  0.33788979    -0.13230
F3022       F  0.94389001  0.23152972  0.31582997    -0.15590
F3023       F  0.00085452  0.16866956  0.30028334    -0.15590
F3024       F  0.00214627  0.20444106  0.27732342    -0.13230
C3025       C  0.91482379  0.26306371  0.21087520     0.24780
C3026       C  0.92312513  0.25320448  0.19309588    -0.23320
C3027       C  0.94194411  0.24194041  0.19474804     0.19690
C3028       C  0.95276337  0.24129613  0.21368459     0.24730
C3029       C  0.94505484  0.25202792  0.23117415    -0.23270
C3030       C  0.92585554  0.26265022  0.22982134     0.19630
F3031       F  0.91826496  0.27333117  0.24650072    -0.13230
F3032       F  0.89679713  0.27421462  0.20952030    -0.15590
F3033       F  0.97126368  0.23089694  0.21478767    -0.15590
F3034       F  0.95003765  0.23184292  0.17789429    -0.13230
C3035       C  0.02181458  0.24570180  0.30244066     0.24780
C3036       C  0.00132693  0.25364391  0.30177807    -0.23320
C3037       C  0.99247378  0.26204389  0.31996712     0.19690
C3038       C  0.00344807  0.26162069  0.33883751     0.24730
C3039       C  0.02356080  0.25263644  0.33994183    -0.23270
C3040       C  0.03292470  0.24527863  0.32142067     0.19630
F3041       F  0.05228204  0.23658162  0.32190224    -0.13230
F3042       F  0.03069962  0.23758129  0.28497012    -0.15590
F3043       F  0.99425861  0.26993309  0.35608532    -0.15590
F3044       F  0.97283647  0.27015378  0.31952034    -0.13230
C3045       C  0.69175500  0.29585360  0.51359842     0.24780
C3046       C  0.69249689  0.27538123  0.52157516    -0.23320
C3047       C  0.67504207  0.26715213  0.53185738     0.19690
C3048       C  0.65671064  0.27877617  0.53341113     0.24730
C3049       C  0.65535406  0.29888727  0.52445753    -0.23270
C3050       C  0.67324002  0.30761285  0.51507130     0.19630
F3051       F  0.67248359  0.32700233  0.50643866    -0.13230
F3052       F  0.70872860  0.30417005  0.50398727    -0.15590
F3053       F  0.64022027  0.27025474  0.54369606    -0.15590
F3054       F  0.67575101  0.24763451  0.54027092    -0.13230
C3055       C  0.76167470  0.19823232  0.52930934     0.24780
C3056       C  0.76146544  0.21756964  0.51889870    -0.23320
C3057       C  0.77948311  0.22470335  0.50875265     0.19690
C3058       C  0.79797222  0.21334728  0.51011923     0.24730
C3059       C  0.79866278  0.19458538  0.52157985    -0.23270
C3060       C  0.78024487  0.18664728  0.53051288     0.19630
F3061       F  0.78059687  0.16848903  0.54153268    -0.13230
F3062       F  0.74422574  0.19114798  0.53905899    -0.15590
F3063       F  0.81538111  0.22097163  0.50067114    -0.15590
F3064       F  0.77939351  0.24328797  0.49842718    -0.13230
C3065       C  0.53371496  0.48214617  0.46323263     0.24780
C3066       C  0.55011582  0.49601753  0.46796018    -0.23320
C3067       C  0.54723039  0.51107994  0.48376226     0.19690
C3068       C  0.52867912  0.51170668  0.49523974     0.24730
C3069       C  0.51265371  0.49725961  0.49122359    -0.23270
C3070       C  0.51508796  0.48272621  0.47484913     0.19630
F3071       F  0.49976450  0.46864319  0.47066207    -0.13230
F3072       F  0.53627616  0.46718026  0.44837228    -0.15590
F3073       F  0.52677378  0.52574539  0.51108398    -0.15590
F3074       F  0.56269559  0.52486187  0.48849765    -0.13230
C3075       C  0.74359708  0.31502933  0.55660766     0.24780
C3076       C  0.72982439  0.31805790  0.57347666    -0.23320
C3077       C  0.71597399  0.30189727  0.57898648     0.19690
C3078       C  0.71525148  0.28339801  0.56709883     0.24730
C3079       C  0.72833222  0.28096227  0.54958318    -0.23270
C3080       C  0.74278882  0.29671788  0.54475492     0.19630
F3081       F  0.75559764  0.29468747  0.52794990    -0.13230
F3082       F  0.75755412  0.33011311  0.55125941    -0.15590
F3083       F  0.70142912  0.26817644  0.57229541    -0.15590
F3084       F  0.70229859  0.30455977  0.59498551    -0.13230
C3085       C  0.16415655  0.01115688  0.31728557     0.24780
C3086       C  0.17309282  0.00781051  0.33720859    -0.23320
C3087       C  0.19415694  0.00142933  0.33851349     0.19690
C3088       C  0.20614212  0.99920035  0.32056006     0.24730
C3089       C  0.19731759  0.00243110  0.30068792    -0.23270
C3090       C  0.17626189  0.00858955  0.29909701     0.19630
F3091       F  0.16759688  0.01229879  0.28004382    -0.13230
F3092       F  0.14397876  0.01748989  0.31545857    -0.15590
F3093       F  0.22623767  0.99255007  0.32242178    -0.15590
F3094       F  0.20314541  0.99646568  0.35713254    -0.13230
C3095       C  0.28332190  0.19304515  0.50964504     0.24780
C3096       C  0.27373545  0.17375395  0.51432031    -0.23320
C3097       C  0.25279039  0.17384393  0.52122213     0.19690
C3098       C  0.24143018  0.19247469  0.52229831     0.24730
C3099       C  0.25061766  0.21156842  0.51665397    -0.23270
C3100       C  0.27180704  0.21182054  0.51071585     0.19630
F3101       F  0.28109339  0.23008528  0.50519828    -0.13230
F3102       F  0.30346018  0.19362971  0.50302961    -0.15590
F3103       F  0.22118874  0.19186772  0.52865828    -0.15590
F3104       F  0.24318037  0.15583938  0.52708056    -0.13230
C3105       C  0.92087964  0.23721364  0.71249052     0.24780
C3106       C  0.90501168  0.25153403  0.71758858    -0.23320
C3107       C  0.90849320  0.26621909  0.73362228     0.19690
C3108       C  0.92715880  0.26603298  0.74495664     0.24730
C3109       C  0.94264564  0.25112620  0.74055201    -0.23270
C3110       C  0.93960960  0.23698117  0.72394725     0.19630
F3111       F  0.95450239  0.22264509  0.71918728    -0.13230
F3112       F  0.91771672  0.22264316  0.69734538    -0.15590
F3113       F  0.92982262  0.27990701  0.76085537    -0.15590
F3114       F  0.89358568  0.28051634  0.73859955    -0.13230
C3115       C  0.75923967  0.23753258  0.59158359     0.24780
C3116       C  0.77924993  0.24669966  0.59226552    -0.23320
C3117       C  0.78816038  0.25420067  0.57361878     0.19690
C3118       C  0.77663239  0.25380041  0.55488819     0.24730
C3119       C  0.75625736  0.24550544  0.55456809    -0.23270
C3120       C  0.74791808  0.23691674  0.57291856     0.19630
F3121       F  0.72836146  0.22863615  0.57288865    -0.13230
F3122       F  0.75042366  0.22946885  0.60913882    -0.15590
F3123       F  0.78493591  0.26246493  0.53741024    -0.15590
F3124       F  0.80738161  0.26319462  0.57382231    -0.13230
C3125       C  0.42569241  0.25410705  0.73185368     0.24780
C3126       C  0.44654846  0.24703448  0.73172900    -0.23320
C3127       C  0.45473219  0.23829024  0.71337699     0.19690
C3128       C  0.44269280  0.23740047  0.69516872     0.24730
C3129       C  0.42213344  0.24535159  0.69485970    -0.23270
C3130       C  0.41350533  0.25315523  0.71353317     0.19630
F3131       F  0.39375923  0.26094316  0.71374322    -0.13230
F3132       F  0.41738733  0.26261552  0.74942030    -0.15590
F3133       F  0.45126957  0.22885364  0.67771371    -0.15590
F3134       F  0.47464142  0.23088417  0.71304208    -0.13230
C3135       C  0.42371857  0.22591247  0.77885230     0.24780
C3136       C  0.44117237  0.21923826  0.76744149    -0.23320
C3137       C  0.44027875  0.20034383  0.75623280     0.19690
C3138       C  0.42166137  0.18874195  0.75566693     0.24730
C3139       C  0.40377553  0.19616025  0.76607159    -0.23270
C3140       C  0.40516158  0.21453458  0.77813985     0.19630
F3141       F  0.38835750  0.22174752  0.78892593    -0.13230
F3142       F  0.42437117  0.24409590  0.78985715    -0.15590
F3143       F  0.42070413  0.17107782  0.74389749    -0.15590
F3144       F  0.45711553  0.19366471  0.74519346    -0.13230
C3145       C  0.50966006  0.29777343  0.77441775     0.24780
C3146       C  0.51032091  0.27755149  0.76574697    -0.23320
C3147       C  0.52891457  0.27033265  0.75672695     0.19690
C3148       C  0.54691980  0.28259569  0.75727909     0.24730
C3149       C  0.54676437  0.30241358  0.76697388    -0.23270
C3150       C  0.52779565  0.31021115  0.77494521     0.19630
F3151       F  0.52711023  0.32927980  0.78428144    -0.13230
F3152       F  0.49169268  0.30511742  0.78297508    -0.15590
F3153       F  0.56463279  0.27493643  0.74843181    -0.15590
F3154       F  0.52968326  0.25113360  0.74762755    -0.13230
C3155       C  0.66987764  0.94013003  0.25007018     0.24780
C3156       C  0.67457767  0.92404634  0.26427065    -0.23320
C3157       C  0.69072610  0.92696184  0.27895413     0.19690
C3158       C  0.70234874  0.94546338  0.27911373     0.24730
C3159       C  0.69829843  0.96123451  0.26437451    -0.23270
C3160       C  0.68176880  0.95855524  0.24998540     0.19630
F3161       F  0.67745615  0.97347305  0.23551420    -0.13230
F3162       F  0.65466382  0.93744645  0.23545879    -0.15590
F3163       F  0.71821495  0.94765378  0.29310799    -0.15590
F3164       F  0.69554983  0.91162445  0.29286829    -0.13230
C3165       C  0.53123632  0.80754563  0.28054506     0.24780
C3166       C  0.54898376  0.79908988  0.27066222    -0.23320
C3167       C  0.54728099  0.77970756  0.26032128     0.19690
C3168       C  0.52855346  0.76859714  0.26059703     0.24730
C3169       C  0.51118957  0.77641892  0.27140714    -0.23270
C3170       C  0.51243392  0.79616074  0.28105746     0.19630
F3171       F  0.49565937  0.80411795  0.29131558    -0.13230
F3172       F  0.53241457  0.82624681  0.29055923    -0.15590
F3173       F  0.52741660  0.74988425  0.25055927    -0.15590
F3174       F  0.56384005  0.77142749  0.24992955    -0.13230
C3175       C  0.69532907  0.44910046  0.28393192     0.24780
C3176       C  0.69623197  0.46699718  0.27118785    -0.23320
C3177       C  0.67925268  0.47203439  0.25824561     0.19690
C3178       C  0.66107110  0.46009437  0.25888117     0.24730
C3179       C  0.65962438  0.44279251  0.27238577    -0.23270
C3180       C  0.67708725  0.43692444  0.28442477     0.19630
F3181       F  0.67595527  0.42034889  0.29765863    -0.13230
F3182       F  0.71172939  0.44398350  0.29644471    -0.15590
F3183       F  0.64454920  0.46586261  0.24678877    -0.15590
F3184       F  0.67988705  0.48930418  0.24586932    -0.13230
C3185       C  0.74445261  0.53404153  0.31723777     0.24780
C3186       C  0.72906531  0.53116179  0.30170979    -0.23320
C3187       C  0.71342752  0.54636289  0.29913442     0.19690
C3188       C  0.71382618  0.56471412  0.31097866     0.24730
C3189       C  0.72987103  0.56820646  0.32562442    -0.23270
C3190       C  0.74489654  0.55253832  0.32909169     0.19630
F3191       F  0.76080161  0.55579943  0.34281559    -0.13230
F3192       F  0.75951407  0.51938046  0.32026270    -0.15590
F3193       F  0.69903979  0.57958145  0.30748445    -0.15590
F3194       F  0.69847261  0.54398038  0.28420489    -0.13230
C3195       C  0.71071363  0.48819213  0.32543933     0.24780
C3196       C  0.70148097  0.49537278  0.30686617    -0.23320
C3197       C  0.68034716  0.50149733  0.30702677     0.19690
C3198       C  0.66891154  0.50128992  0.32580482     0.24730
C3199       C  0.67853930  0.49509617  0.34466171    -0.23270
C3200       C  0.69941133  0.48797546  0.34409366     0.19630
F3201       F  0.70901243  0.48079350  0.36166140    -0.13230
F3202       F  0.73095523  0.48174237  0.32555026    -0.15590
F3203       F  0.64885646  0.50823658  0.32574187    -0.15590
F3204       F  0.67106037  0.50846560  0.28922925    -0.13230
C3205       C  0.93900834  0.74423573  0.21708519     0.24780
C3206       C  0.93929572  0.75536166  0.23607007    -0.23320
C3207       C  0.92149588  0.76648849  0.24233190     0.19690
C3208       C  0.90320976  0.76555965  0.23045057     0.24730
C3209       C  0.90245959  0.75356811  0.21198636    -0.23270
C3210       C  0.92067513  0.74345520  0.20499986     0.19630
F3211       F  0.92029257  0.73169682  0.18730307    -0.13230
F3212       F  0.95615239  0.73345247  0.21076435    -0.15590
F3213       F  0.88601591  0.77599865  0.23726661    -0.15590
F3214       F  0.92161805  0.77757862  0.26047401    -0.13230
C3215       C  0.02202407  0.79016666  0.25394265     0.24780
C3216       C  0.00316140  0.78929569  0.26517864    -0.23320
C3217       C  0.99611904  0.80717320  0.27575174     0.19690
C3218       C  0.00721159  0.82592701  0.27443321     0.24730
C3219       C  0.02572102  0.82714232  0.26260276    -0.23270
C3220       C  0.03336858  0.80895460  0.25284094     0.19630
F3221       F  0.05104333  0.80971995  0.24114629    -0.13230
F3222       F  0.02894078  0.77315356  0.24330372    -0.15590
F3223       F  0.99964623  0.84303809  0.28451144    -0.15590
F3224       F  0.97791262  0.80665283  0.28664614    -0.13230
C3225       C  0.23885888  0.44117802  0.21211081     0.24780
C3226       C  0.22577595  0.44803687  0.19579649    -0.23320
C3227       C  0.21331685  0.46595013  0.19880962     0.19690
C3228       C  0.21442596  0.47719009  0.21749256     0.24730
C3229       C  0.22784242  0.47067758  0.23360499    -0.23270
C3230       C  0.23992787  0.45247489  0.23091071     0.19630
F3231       F  0.25292862  0.44581670  0.24633117    -0.13230
F3232       F  0.25133408  0.42419547  0.20946286    -0.15590
F3233       F  0.20250958  0.49462988  0.21984078    -0.15590
F3234       F  0.20004823  0.47262511  0.18357628    -0.13230
C3235       C  0.26479098  0.50836982  0.22359175     0.24780
C3236       C  0.26274125  0.49800365  0.24288746    -0.23320
C3237       C  0.27941509  0.48593244  0.25046257     0.19690
C3238       C  0.29823672  0.48497557  0.23956505     0.24730
C3239       C  0.30086204  0.49610342  0.22072342    -0.23270
C3240       C  0.28376334  0.50735981  0.21249592     0.19630
F3241       F  0.28573205  0.51813679  0.19430542    -0.13230
F3242       F  0.24861364  0.51969507  0.21575736    -0.15590
F3243       F  0.31398355  0.47313485  0.24755806    -0.15590
F3244       F  0.27756242  0.47539442  0.26883795    -0.13230
C3245       C  0.42355541  0.68516805  0.28148814     0.24780
C3246       C  0.40398843  0.69436006  0.27760979    -0.23320
C3247       C  0.40337498  0.71207605  0.26476228     0.19690
C3248       C  0.42172892  0.72077512  0.25710791     0.24730
C3249       C  0.44142996  0.71573592  0.26598124    -0.23270
C3250       C  0.44204297  0.69539182  0.27502688     0.19630
F3251       F  0.45984894  0.68401245  0.27477105    -0.13230
F3252       F  0.42482582  0.66631152  0.29118432    -0.15590
F3253       F  0.42018238  0.72479837  0.23645798    -0.15590
F3254       F  0.38502981  0.71838758  0.25600997    -0.13230
C3255       C  0.28481726  0.55433745  0.27669637     0.24780
C3256       C  0.27434022  0.57286304  0.27082912    -0.23320
C3257       C  0.25345144  0.57126172  0.26369670     0.19690
C3258       C  0.24310924  0.55200162  0.26352052     0.24730
C3259       C  0.25327091  0.53375334  0.27023938    -0.23270
C3260       C  0.27436912  0.53499788  0.27643826     0.19630
F3261       F  0.28465851  0.51767467  0.28310424    -0.13230
F3262       F  0.30487383  0.55495325  0.28361715    -0.15590
F3263       F  0.22287308  0.55119697  0.25707102    -0.15590
F3264       F  0.24286766  0.58827730  0.25664524    -0.13230
C3265       C  0.22428193  0.94830837  0.20404936     0.24780
C3266       C  0.23493435  0.93057890  0.21169647    -0.23320
C3267       C  0.24611711  0.93209850  0.23064427     0.19690
C3268       C  0.24397626  0.94966325  0.24335445     0.24730
C3269       C  0.23112869  0.96625067  0.23704975    -0.23270
C3270       C  0.22279101  0.96638677  0.21654646     0.19630
F3271       F  0.21057256  0.98253353  0.21009564    -0.13230
F3272       F  0.21313136  0.94720944  0.18597354    -0.15590
F3273       F  0.25363592  0.95010141  0.26230121    -0.15590
F3274       F  0.25809795  0.91592377  0.23748788    -0.13230
C3275       C  0.21326259  0.76975202  0.07259684     0.24780
C3276       C  0.22454458  0.77657552  0.05510870    -0.23320
C3277       C  0.23551688  0.79560262  0.05605607     0.19690
C3278       C  0.23564005  0.80738812  0.07456836     0.24730
C3279       C  0.22518315  0.79999170  0.09242641    -0.23270
C3280       C  0.21365388  0.78127620  0.09113864     0.19630
F3281       F  0.20296324  0.77397591  0.10796612    -0.13230
F3282       F  0.20248871  0.75145126  0.07190289    -0.15590
F3283       F  0.24705226  0.82527319  0.07545083    -0.15590
F3284       F  0.24676386  0.80231012  0.03938151    -0.13230
C3285       C  0.02809661  0.76261502  0.32575410     0.24780
C3286       C  0.04654215  0.75425923  0.31711255    -0.23320
C3287       C  0.04563275  0.74475914  0.29721963     0.19690
C3288       C  0.02706143  0.74464775  0.28576536     0.24730
C3289       C  0.00898426  0.75397402  0.29386998    -0.23270
C3290       C  0.00940916  0.76256283  0.31411574     0.19630
F3291       F  0.99196289  0.77147980  0.32225545    -0.13230
F3292       F  0.02843050  0.77181965  0.34489982    -0.15590
F3293       F  0.02677453  0.73572283  0.26646352    -0.15590
F3294       F  0.06280050  0.73558689  0.28874217    -0.13230
C3295       C  0.20240871  0.48632656  0.82058880     0.24780
C3296       C  0.19831098  0.49968107  0.80364584    -0.23320
C3297       C  0.18072174  0.51292975  0.80439236     0.19690
C3298       C  0.16841151  0.51393215  0.82253957     0.24730
C3299       C  0.17338522  0.50145991  0.83995874    -0.23270
C3300       C  0.19005084  0.48716605  0.83854983     0.19630
F3301       F  0.19473153  0.47439036  0.85489410    -0.13230
F3302       F  0.21893203  0.47298564  0.82001197    -0.15590
F3303       F  0.15253555  0.52800056  0.82359414    -0.15590
F3304       F  0.17578804  0.52525784  0.78783320    -0.13230
C3305       C  0.23842294  0.44490698  0.74857251     0.24780
C3306       C  0.22861558  0.46323952  0.74155452    -0.23320
C3307       C  0.21837535  0.46316852  0.72204664     0.19690
C3308       C  0.21751965  0.44473450  0.70998657     0.24730
C3309       C  0.22687910  0.42618345  0.71736379    -0.23270
C3310       C  0.23781711  0.42669266  0.73653905     0.19630
F3311       F  0.24784929  0.40941027  0.74380386    -0.13230
F3312       F  0.24838132  0.44458903  0.76738034    -0.15590
F3313       F  0.20656355  0.44470203  0.69176999    -0.15590
F3314       F  0.20857171  0.48069757  0.71511806    -0.13230
C3315       C  0.40648472  0.48578036  0.55168539     0.24780
C3316       C  0.40519726  0.49508484  0.57163604    -0.23320
C3317       C  0.42331273  0.50395455  0.58051727     0.19690
C3318       C  0.44202568  0.50460199  0.56902773     0.24730
C3319       C  0.44274621  0.49632448  0.54864999    -0.23270
C3320       C  0.42501131  0.48652518  0.54031027     0.19630
F3321       F  0.42562135  0.47785363  0.52090312    -0.13230
F3322       F  0.38969766  0.47600457  0.54305831    -0.15590
F3323       F  0.45919445  0.51382749  0.57746712    -0.15590
F3324       F  0.42260690  0.51295575  0.59974904    -0.13230
C3325       C  0.26559081  0.51309116  0.70169694     0.24780
C3326       C  0.28074506  0.49763182  0.69783836    -0.23320
C3327       C  0.28495815  0.48256193  0.71322264     0.19690
C3328       C  0.27361116  0.48245934  0.73193362     0.24730
C3329       C  0.25811186  0.49771431  0.73566826    -0.23270
C3330       C  0.25453960  0.51325774  0.72054119     0.19630
F3331       F  0.23962820  0.52806887  0.72367526    -0.13230
F3332       F  0.26115549  0.52776013  0.68695907    -0.15590
F3333       F  0.27757842  0.46722362  0.74615150    -0.15590
F3334       F  0.29910650  0.46714834  0.70955769    -0.13230
C3335       C  0.16496831  0.30325191  0.53149604     0.24780
C3336       C  0.17051455  0.31996698  0.51834235    -0.23320
C3337       C  0.18733361  0.31749958  0.50440460     0.19690
C3338       C  0.19889731  0.29896727  0.50415161     0.24730
C3339       C  0.19405457  0.28264744  0.51798933    -0.23270
C3340       C  0.17678021  0.28471597  0.53142786     0.19630
F3341       F  0.17176546  0.26907595  0.54486512    -0.13230
F3342       F  0.14900057  0.30538498  0.54529336    -0.15590
F3343       F  0.21542429  0.29722896  0.49095038    -0.15590
F3344       F  0.19288515  0.33330869  0.49134144    -0.13230
C3345       C  0.20982370  0.55481897  0.32460560     0.24780
C3346       C  0.22580023  0.55325227  0.33966640    -0.23320
C3347       C  0.24275825  0.53978276  0.33609775     0.19690
C3348       C  0.24293340  0.52673289  0.31862497     0.24730
C3349       C  0.22602798  0.52682694  0.30448794    -0.23270
C3350       C  0.21004029  0.54178575  0.30690484     0.19630
F3351       F  0.19390876  0.54254843  0.29308237    -0.13230
F3352       F  0.19320510  0.56760186  0.32795515    -0.15590
F3353       F  0.25848989  0.51240696  0.31667562    -0.15590
F3354       F  0.25840296  0.53813569  0.35042049    -0.13230
C3355       C  0.46089000  0.31668485  0.73011650     0.24780
C3356       C  0.47625740  0.32029566  0.71489165    -0.23320
C3357       C  0.49034180  0.30426252  0.70967879     0.19690
C3358       C  0.48978199  0.28520861  0.72051594     0.24730
C3359       C  0.47524619  0.28220355  0.73671710    -0.23270
C3360       C  0.46042814  0.29780740  0.74098343     0.19630
F3361       F  0.44629535  0.29522543  0.75659651    -0.13230
F3362       F  0.44678507  0.33180806  0.73499594    -0.15590
F3363       F  0.50392291  0.27008660  0.71584543    -0.15590
F3364       F  0.50549724  0.30759976  0.69521525    -0.13230
C3365       C  0.46483354  0.44011193  0.57652934     0.24780
C3366       C  0.47816174  0.44610843  0.59297397    -0.23320
C3367       C  0.49232345  0.46263039  0.58997798     0.19690
C3368       C  0.49241411  0.47373888  0.57123183     0.24730
C3369       C  0.47834150  0.46854693  0.55520356    -0.23270
C3370       C  0.46489060  0.45133790  0.55768983     0.19630
F3371       F  0.45140517  0.44588887  0.54219879    -0.13230
F3372       F  0.45089324  0.42432905  0.57920761    -0.15590
F3373       F  0.50562604  0.49021999  0.56902467    -0.15590
F3374       F  0.50575777  0.46833210  0.60545774    -0.13230
C3375       C  0.30352763  0.52597438  0.76870595     0.24780
C3376       C  0.30430242  0.54806547  0.76727917    -0.23320
C3377       C  0.28519943  0.55903030  0.76881962     0.19690
C3378       C  0.26604794  0.54826354  0.76937292     0.24730
C3379       C  0.26542832  0.52624066  0.77099347    -0.23270
C3380       C  0.28462796  0.51557597  0.77195016     0.19630
F3381       F  0.28511172  0.49464055  0.77543342    -0.13230
F3382       F  0.32087659  0.51393275  0.76702046    -0.15590
F3383       F  0.24840896  0.55960959  0.76693171    -0.15590
F3384       F  0.28470764  0.58023888  0.76882960    -0.13230
C3385       C  0.44289478  0.54948168  0.03148662     0.24780
C3386       C  0.44344934  0.52906437  0.02333857    -0.23320
C3387       C  0.42509261  0.52013258  0.01535969     0.19690
C3388       C  0.40623783  0.53100892  0.01618403     0.24730
C3389       C  0.40525842  0.55112634  0.02518604    -0.23270
C3390       C  0.42388423  0.56051712  0.03234198     0.19630
F3391       F  0.42351669  0.57988099  0.04106798    -0.13230
F3392       F  0.46056994  0.55839360  0.03918243    -0.15590
F3393       F  0.38892713  0.52179338  0.00800118    -0.15590
F3394       F  0.42545019  0.50063835  0.00687512    -0.13230
C3395       C  0.45688992  0.51272893  0.07518964     0.24780
C3396       C  0.45073821  0.50045100  0.05805999    -0.23320
C3397       C  0.43250439  0.48822735  0.05958558     0.19690
C3398       C  0.42096473  0.48785257  0.07828113     0.24730
C3399       C  0.42769227  0.49947525  0.09573589    -0.23270
C3400       C  0.44554981  0.51221917  0.09384687     0.19630
F3401       F  0.45221869  0.52401962  0.11023798    -0.13230
F3402       F  0.47436027  0.52474339  0.07402193    -0.15590
F3403       F  0.40399853  0.47518862  0.07973630    -0.15590
F3404       F  0.42623282  0.47620140  0.04324567    -0.13230
C3405       C  0.53932445  0.50812215  0.96804589     0.24780
C3406       C  0.52991738  0.50122961  0.94932883    -0.23320
C3407       C  0.50927635  0.49348827  0.95003294     0.19690
C3408       C  0.49797072  0.49371861  0.96867669     0.24730
C3409       C  0.50697290  0.50152021  0.98710150    -0.23270
C3410       C  0.52788028  0.50835874  0.98680683     0.19630
F3411       F  0.53696495  0.51592523  0.00445648    -0.13230
F3412       F  0.55917617  0.51560904  0.96798910    -0.15590
F3413       F  0.47799175  0.48651166  0.96873286    -0.15590
F3414       F  0.49994048  0.48557575  0.93263883    -0.13230
C3415       C  0.49350324  0.56969977  0.98391717     0.24780
C3416       C  0.47810502  0.57290145  0.96848326    -0.23320
C3417       C  0.46301892  0.55724259  0.96511908     0.19690
C3418       C  0.46300374  0.53897940  0.97744949     0.24730
C3419       C  0.47798249  0.53622744  0.99342575    -0.23270
C3420       C  0.49343341  0.55159855  0.99623082     0.19630
F3421       F  0.50806760  0.54941114  0.01150684    -0.13230
F3422       F  0.50836869  0.58446402  0.98744863    -0.15590
F3423       F  0.44816157  0.52420112  0.97405017    -0.15590
F3424       F  0.44760587  0.56018952  0.95077809    -0.13230
C3425       C  0.27822066  0.73836049  0.08195283     0.24780
C3426       C  0.29617280  0.74887193  0.07485246    -0.23320
C3427       C  0.29521342  0.76001267  0.05586493     0.19690
C3428       C  0.27714473  0.75964257  0.04361693     0.24730
C3429       C  0.25959032  0.74827694  0.05010224    -0.23270
C3430       C  0.25998603  0.73805407  0.06960841     0.19630
F3431       F  0.24301769  0.72727767  0.07634725    -0.13230
F3432       F  0.27874736  0.72741318  0.10015278    -0.15590
F3433       F  0.27691457  0.76999703  0.02505151    -0.15590
F3434       F  0.31199008  0.77103027  0.04895884    -0.13230
C3435       C  0.42987466  0.76522906  0.23498383     0.24780
C3436       C  0.44803781  0.75268369  0.23502693    -0.23320
C3437       C  0.45477828  0.74336653  0.21636141     0.19690
C3438       C  0.44319664  0.74585908  0.19800928     0.24730
C3439       C  0.42461967  0.75773581  0.19798727    -0.23270
C3440       C  0.41798780  0.76735258  0.21661582     0.19630
F3441       F  0.40023116  0.77899108  0.21692853    -0.13230
F3442       F  0.42302659  0.77419115  0.25296891    -0.15590
F3443       F  0.44995150  0.73627022  0.18029639    -0.15590
F3444       F  0.47253801  0.73170548  0.21603875    -0.13230
C3445       C  0.96457707  0.44972446  0.53888894     0.24780
C3446       C  0.97516993  0.46734937  0.54648064    -0.23320
C3447       C  0.98421842  0.46669097  0.56655488     0.19690
C3448       C  0.98347931  0.44817824  0.57847025     0.24730
C3449       C  0.97379170  0.43012436  0.57033335    -0.23270
C3450       C  0.96378394  0.43136813  0.55067400     0.19630
F3451       F  0.95330337  0.41468382  0.54269575    -0.13230
F3452       F  0.95530689  0.45020535  0.51973961    -0.15590
F3453       F  0.99319348  0.44756658  0.59736793    -0.15590
F3454       F  0.99428721  0.48371805  0.57428516    -0.13230
C3455       C  0.92385640  0.52383934  0.50795085     0.24780
C3456       C  0.94224861  0.53156832  0.51701716    -0.23320
C3457       C  0.94234587  0.55153898  0.52621201     0.19690
C3458       C  0.92377396  0.56317990  0.52733214     0.24730
C3459       C  0.90503705  0.55476284  0.51944462    -0.23270
C3460       C  0.90540660  0.53531298  0.50912771     0.19630
F3461       F  0.88774943  0.52718879  0.50051844    -0.13230
F3462       F  0.92365174  0.50473197  0.49862301    -0.15590
F3463       F  0.92379561  0.58195571  0.53727692    -0.15590
F3464       F  0.96012502  0.55926331  0.53489397    -0.13230
C3465       C  0.02789763  0.47917854  0.53026027     0.24780
C3466       C  0.01066632  0.47273639  0.51832693    -0.23320
C3467       C  0.01159264  0.45369921  0.50733124     0.19690
C3468       C  0.02995080  0.44160673  0.50772427     0.24730
C3469       C  0.04759496  0.44863776  0.51887946    -0.23270
C3470       C  0.04619301  0.46730863  0.53051609     0.19630
F3471       F  0.06271206  0.47426391  0.54195778    -0.13230
F3472       F  0.02719073  0.49742946  0.54114875    -0.15590
F3473       F  0.03091102  0.42375772  0.49624234    -0.15590
F3474       F  0.99501909  0.44722084  0.49572713    -0.13230
C3475       C  0.94116949  0.51499791  0.58734522     0.24780
C3476       C  0.92320695  0.50237852  0.58891246    -0.23320
C3477       C  0.91661467  0.49084230  0.57135260     0.19690
C3478       C  0.92855828  0.49098512  0.55292645     0.24730
C3479       C  0.94702812  0.50286506  0.55185330    -0.23270
C3480       C  0.95291403  0.51526202  0.56897404     0.19630
F3481       F  0.97061343  0.52696875  0.56816278    -0.13230
F3482       F  0.94765831  0.52672801  0.60385999    -0.15590
F3483       F  0.92255810  0.47897527  0.53645895    -0.15590
F3484       F  0.89946220  0.47840202  0.57251283    -0.13230
C3485       C  0.01231590  0.32034811  0.78470700     0.24780
C3486       C  0.03048770  0.32225474  0.77248927    -0.23320
C3487       C  0.03708397  0.30516368  0.76028795     0.19690
C3488       C  0.02484336  0.28695030  0.75927928     0.24730
C3489       C  0.00607958  0.28570712  0.77059072    -0.23270
C3490       C  0.00023624  0.30225644  0.78373061     0.19630
F3491       F  0.98227497  0.30118825  0.79498920    -0.13230
F3492       F  0.00594001  0.33629707  0.79723168    -0.15590
F3493       F  0.03092541  0.27081549  0.74688374    -0.15590
F3494       F  0.05458613  0.30660099  0.74840468    -0.13230
C3495       C  0.17593412  0.47913781  0.75954588     0.24780
C3496       C  0.19355622  0.47051849  0.76931702    -0.23320
C3497       C  0.19243204  0.45027688  0.77785315     0.19690
C3498       C  0.17353646  0.43912079  0.77726915     0.24730
C3499       C  0.15553340  0.44828756  0.76846809    -0.23270
C3500       C  0.15712489  0.46819127  0.75910235     0.19630
F3501       F  0.14040770  0.47719644  0.74953995    -0.13230
F3502       F  0.17687388  0.49850512  0.75083104    -0.15590
F3503       F  0.17256750  0.41993324  0.78632068    -0.15590
F3504       F  0.20932999  0.44167028  0.78741058    -0.13230
C3505       C  0.96532757  0.53247595  0.94492694     0.24780
C3506       C  0.97406874  0.55267364  0.94390534    -0.23320
C3507       C  0.98193065  0.56189012  0.96233278     0.19690
C3508       C  0.98205056  0.55057070  0.98118625     0.24730
C3509       C  0.97434795  0.52998039  0.98171268    -0.23270
C3510       C  0.96565201  0.52122188  0.96358270     0.19630
F3511       F  0.95771156  0.50151120  0.96393348    -0.13230
F3512       F  0.95649527  0.52350702  0.92778095    -0.15590
F3513       F  0.99028582  0.55938013  0.99868720    -0.15590
F3514       F  0.99049471  0.58131437  0.96184308    -0.13230
C3515       C  0.02567898  0.51785062  0.99356561     0.24780
C3516       C  0.01021665  0.50316135  0.98845691    -0.23320
C3517       C  0.01274336  0.49046029  0.97067086     0.19690
C3518       C  0.03104408  0.49188519  0.95863648     0.24730
C3519       C  0.04700975  0.50586002  0.96447229    -0.23270
C3520       C  0.04392213  0.51915519  0.98174994     0.19630
F3521       F  0.05886705  0.53313133  0.98750214    -0.13230
F3522       F  0.02342806  0.53038209  0.01059286    -0.15590
F3523       F  0.03371898  0.47878265  0.94213146    -0.15590
F3524       F  0.99777465  0.47637674  0.96534163    -0.13230
C3525       C  0.99615492  0.44818009  0.01055310     0.24780
C3526       C  0.00474701  0.46728570  0.01703150    -0.23320
C3527       C  0.02595659  0.46801371  0.02294342     0.19690
C3528       C  0.03806920  0.44959479  0.02327448     0.24730
C3529       C  0.02904363  0.43020218  0.01790433    -0.23270
C3530       C  0.00809181  0.42990800  0.01090686     0.19630
F3531       F  0.99900265  0.41186759  0.00431343    -0.13230
F3532       F  0.97591675  0.44718790  0.00412865    -0.15590
F3533       F  0.05823079  0.45057668  0.02985903    -0.15590
F3534       F  0.03469194  0.48634478  0.02914935    -0.13230
C3535       C  0.02931830  0.97605118  0.03201634     0.24780
C3536       C  0.01381708  0.97090510  0.01734600    -0.23320
C3537       C  0.01642358  0.95321341  0.00452988     0.19690
C3538       C  0.03475817  0.94121833  0.00593728     0.24730
C3539       C  0.05069564  0.94702125  0.01996292    -0.23270
C3540       C  0.04764069  0.96429413  0.03325510     0.19630
F3541       F  0.06266287  0.97006352  0.04716987    -0.13230
F3542       F  0.02701797  0.99304697  0.04458301    -0.15590
F3543       F  0.03751394  0.92479439  0.99274673    -0.15590
F3544       F  0.00154437  0.94798008  0.99029138    -0.13230
C3545       C  0.96696277  0.05683767  0.95900510     0.24780
C3546       C  0.98150160  0.07245493  0.96426345    -0.23320
C3547       C  0.99650679  0.06850160  0.97986968     0.19690
C3548       C  0.99620589  0.04972664  0.99094840     0.24730
C3549       C  0.98088752  0.03462549  0.98663577    -0.23270
C3550       C  0.96666552  0.03795741  0.97015314     0.19630
F3551       F  0.95206575  0.02329537  0.96541394    -0.13230
F3552       F  0.95218132  0.06045312  0.94415560    -0.15590
F3553       F  0.01019379  0.04671461  0.00669241    -0.15590
F3554       F  0.01106136  0.08316684  0.98484732    -0.13230
C3555       C  0.93856853  0.01275595  0.08253458     0.24780
C3556       C  0.92214680  0.99818870  0.08376591    -0.23320
C3557       C  0.91813827  0.98493168  0.06668748     0.19690
C3558       C  0.93113316  0.98551069  0.04903701     0.24730
C3559       C  0.94815880  0.99941900  0.04834045    -0.23270
C3560       C  0.95143142  0.01337865  0.06495766     0.19630
F3561       F  0.96774641  0.02696844  0.06454329    -0.13230
F3562       F  0.94258463  0.02593308  0.09874086    -0.15590
F3563       F  0.92755857  0.97206488  0.03298402    -0.15590
F3564       F  0.90258501  0.97052508  0.06770451    -0.13230
C3565       C  0.91518964  0.55431130  0.00113500     0.24780
C3566       C  0.91952350  0.57134887  0.01432572    -0.23320
C3567       C  0.93592733  0.56985371  0.02892552     0.19690
C3568       C  0.94834788  0.55191732  0.02979075     0.24730
C3569       C  0.94471537  0.53526718  0.01594463    -0.23270
C3570       C  0.92779551  0.53636057  0.00187096     0.19630
F3571       F  0.92394515  0.52039499  0.98840573    -0.13230
F3572       F  0.89968314  0.55562979  0.98664707    -0.15590
F3573       F  0.96457572  0.55114847  0.04351806    -0.15590
F3574       F  0.94031066  0.58610080  0.04192962    -0.13230
C3575       C  0.18846104  0.76269079  0.97377669     0.24780
C3576       C  0.19176741  0.74785154  0.98974658    -0.23320
C3577       C  0.17709823  0.73174327  0.99248745     0.19690
C3578       C  0.15897839  0.73102056  0.98024621     0.24730
C3579       C  0.15512980  0.74638764  0.96496079    -0.23270
C3580       C  0.17019645  0.76200273  0.96151168     0.19630
F3581       F  0.16661543  0.77729593  0.94720069    -0.13230
F3582       F  0.20266304  0.77804761  0.97032655    -0.15590
F3583       F  0.14480579  0.71559621  0.98374072    -0.15590
F3584       F  0.17996308  0.71712545  0.00765618    -0.13230
C3585       C  0.96826032  0.92755036  0.04379073     0.24780
C3586       C  0.97594668  0.92592529  0.06440471    -0.23320
C3587       C  0.98322632  0.94406715  0.07461626     0.19690
C3588       C  0.98384483  0.96323864  0.06391612     0.24730
C3589       C  0.97712812  0.96437771  0.04301119    -0.23270
C3590       C  0.96898990  0.94654755  0.03320889     0.19630
F3591       F  0.96199887  0.94754052  0.01313350    -0.13230
F3592       F  0.95995580  0.91073490  0.03378403    -0.15590
F3593       F  0.99162314  0.98045221  0.07363968    -0.15590
F3594       F  0.99070979  0.94303216  0.09448688    -0.13230
C3595       C  0.98505204  0.78563551  0.19378169     0.24780
C3596       C  0.97287805  0.80382005  0.19137628    -0.23320
C3597       C  0.96249858  0.81221015  0.20886166     0.19690
C3598       C  0.96326520  0.80177283  0.22816693     0.24730
C3599       C  0.97462367  0.78305528  0.23013959    -0.23270
C3600       C  0.98591028  0.77537607  0.21300131     0.19630
F3601       F  0.99697022  0.75729568  0.21466846    -0.13230
F3602       F  0.99583305  0.77754097  0.17736966    -0.15590
F3603       F  0.95223544  0.80936863  0.24462526    -0.15590
F3604       F  0.95054554  0.82966392  0.20689855    -0.13230
C3605       C  0.96061913  0.71356024  0.81106458     0.24780
C3606       C  0.97540687  0.71556871  0.79491382    -0.23320
C3607       C  0.99152630  0.70069312  0.79316149     0.19690
C3608       C  0.99168785  0.68307499  0.80601901     0.24730
C3609       C  0.97592665  0.68015586  0.82101781    -0.23270
C3610       C  0.96083532  0.69584397  0.82403018     0.19630
F3611       F  0.94544299  0.69323691  0.83838468    -0.13230
F3612       F  0.94538067  0.72815152  0.81345061    -0.15590
F3613       F  0.00644902  0.66811499  0.80286808    -0.15590
F3614       F  0.00563872  0.70203762  0.77738388    -0.13230
C3615       C  0.99329611  0.75405763  0.82368895     0.24780
C3616       C  0.00190362  0.74806658  0.80441020    -0.23320
C3617       C  0.02209468  0.73910500  0.80400302     0.19690
C3618       C  0.03368070  0.73684328  0.82257754     0.24730
C3619       C  0.02512488  0.74308497  0.84185521    -0.23270
C3620       C  0.00480588  0.75174334  0.84217439     0.19630
F3621       F  0.99627679  0.75868619  0.86034032    -0.13230
F3622       F  0.97396582  0.76281960  0.82445222    -0.15590
F3623       F  0.05308599  0.72827697  0.82176200    -0.15590
F3624       F  0.03096306  0.73367936  0.78549902    -0.13230
C3625       C  0.95933198  0.81914507  0.72689992     0.24780
C3626       C  0.97458808  0.82148972  0.71128974    -0.23320
C3627       C  0.99002009  0.80600957  0.70893670     0.19690
C3628       C  0.99087379  0.78901168  0.72285884     0.24730
C3629       C  0.97637577  0.78745995  0.73934319    -0.23270
C3630       C  0.96011425  0.80223824  0.74069157     0.19630
F3631       F  0.94628976  0.80142517  0.75676055    -0.13230
F3632       F  0.94436401  0.83398906  0.72958525    -0.15590
F3633       F  0.00625774  0.77452329  0.72081138    -0.15590
F3634       F  0.00502095  0.80810080  0.69409104    -0.13230
C3635       C  0.94611354  0.17904708  0.76023275     0.24780
C3636       C  0.92683245  0.17764865  0.77073642    -0.23320
C3637       C  0.91823873  0.19582587  0.77975310     0.19690
C3638       C  0.92931485  0.21481564  0.77914588     0.24730
C3639       C  0.94893069  0.21579649  0.76933765    -0.23270
C3640       C  0.95703511  0.19789265  0.75962520     0.19630
F3641       F  0.97593203  0.19858175  0.74998151    -0.13230
F3642       F  0.95452693  0.16208205  0.75059326    -0.15590
F3643       F  0.92133487  0.23198676  0.78876032    -0.15590
F3644       F  0.89976778  0.19492220  0.79013001    -0.13230
C3645       C  0.99834745  0.99075034  0.96276451     0.24780
C3646       C  0.00791975  0.99846280  0.98092725    -0.23320
C3647       C  0.02907169  0.00438086  0.98035734     0.19690
C3648       C  0.04017060  0.00359796  0.96140974     0.24730
C3649       C  0.03014020  0.99695690  0.94290318    -0.23270
C3650       C  0.00931076  0.98987493  0.94400374     0.19630
F3651       F  0.99943063  0.98202915  0.92688193    -0.13230
F3652       F  0.97811375  0.98430146  0.96319267    -0.15590
F3653       F  0.06029472  0.01030208  0.96096518    -0.15590
F3654       F  0.03870574  0.01153558  0.99789955    -0.13230
C3655       C  0.71381016  0.06941296  0.80316650     0.24780
C3656       C  0.72866194  0.07255239  0.81910616    -0.23320
C3657       C  0.74261968  0.05635604  0.82424606     0.19690
C3658       C  0.74244520  0.03766893  0.81273385     0.24730
C3659       C  0.72835627  0.03514172  0.79599227    -0.23270
C3660       C  0.71371931  0.05090048  0.79167348     0.19630
F3661       F  0.69995659  0.04872379  0.77559805    -0.13230
F3662       F  0.69974513  0.08459826  0.79830378    -0.15590
F3663       F  0.75641628  0.02239252  0.81744800    -0.15590
F3664       F  0.75726556  0.05917778  0.83939886    -0.13230
C3665       C  0.78135943  0.02201996  0.77656462     0.24780
C3666       C  0.76337060  0.03003729  0.76690411    -0.23320
C3667       C  0.76406622  0.04990311  0.75749261     0.19690
C3668       C  0.78289241  0.06125247  0.75708397     0.24730
C3669       C  0.80119358  0.05267203  0.76587221    -0.23270
C3670       C  0.80006035  0.03318319  0.77608542     0.19630
F3671       F  0.81718095  0.02477085  0.78547988    -0.13230
F3672       F  0.78092638  0.00294861  0.78594834    -0.15590
F3673       F  0.78353162  0.07997650  0.74707825    -0.15590
F3674       F  0.74677092  0.05788797  0.74808161    -0.13230
C3675       C  0.69603452  0.99335081  0.83809372     0.24780
C3676       C  0.67550320  0.00142487  0.83807835    -0.23320
C3677       C  0.66664765  0.00790532  0.81895730     0.19690
C3678       C  0.67859056  0.00754313  0.80049612     0.24730
C3679       C  0.69941316  0.00040110  0.80089706    -0.23270
C3680       C  0.70780004  0.99286935  0.81972866     0.19630
F3681       F  0.72771300  0.98549043  0.82040053    -0.13230
F3682       F  0.70487818  0.98601435  0.85599281    -0.15590
F3683       F  0.67015730  0.01504802  0.78249959    -0.15590
F3684       F  0.64693301  0.01575109  0.81836649    -0.13230
C3685       C  0.73533494  0.93805450  0.20792081     0.24780
C3686       C  0.72689643  0.94764617  0.18994940    -0.23320
C3687       C  0.71704638  0.96724133  0.19183069     0.19690
C3688       C  0.71672549  0.97760604  0.21098289     0.24730
C3689       C  0.72603598  0.96855869  0.22868528    -0.23270
C3690       C  0.73495866  0.94853080  0.22723545     0.19630
F3691       F  0.74403962  0.93959827  0.24425091    -0.13230
F3692       F  0.74501362  0.91919779  0.20652151    -0.15590
F3693       F  0.70769749  0.99681672  0.21221474    -0.15590
F3694       F  0.70784022  0.97650271  0.17503740    -0.13230
C3695       C  0.92633993  0.02067838  0.00573541     0.24780
C3696       C  0.94471866  0.02905849  0.01423032    -0.23320
C3697       C  0.94475477  0.04975702  0.02169780     0.19690
C3698       C  0.92619190  0.06155235  0.02159532     0.24730
C3699       C  0.90747491  0.05266847  0.01408438    -0.23270
C3700       C  0.90796341  0.03234526  0.00552932     0.19630
F3701       F  0.89057222  0.02363542  0.99696402    -0.13230
F3702       F  0.92618130  0.00093061  0.99785149    -0.15590
F3703       F  0.92626538  0.08112807  0.02984493    -0.15590
F3704       F  0.96250395  0.05819779  0.02974834    -0.13230
C3705       C  0.78437418  0.75724025  0.06892230     0.24780
C3706       C  0.77536278  0.75115716  0.08807855    -0.23320
C3707       C  0.75502287  0.74268039  0.08804290     0.19690
C3708       C  0.74345601  0.74167351  0.06960683     0.24730
C3709       C  0.75198583  0.74876019  0.05073982    -0.23270
C3710       C  0.77269355  0.75605988  0.05030488     0.19630
F3711       F  0.78122767  0.76279184  0.03208017    -0.13230
F3712       F  0.80396950  0.76535713  0.06839051    -0.15590
F3713       F  0.72359972  0.73415380  0.07019649    -0.15590
F3714       F  0.74618790  0.73536065  0.10590494    -0.13230
C3715       C  0.67060150  0.77011924  0.02732864     0.24780
C3716       C  0.68835070  0.77815219  0.01739732    -0.23320
C3717       C  0.68767532  0.79812453  0.00826584     0.19690
C3718       C  0.66894370  0.80953909  0.00823068     0.24730
C3719       C  0.65084482  0.80096858  0.01731514    -0.23270
C3720       C  0.65205797  0.78145357  0.02744320     0.19630
F3721       F  0.63521053  0.77321663  0.03737370    -0.13230
F3722       F  0.67117009  0.75095978  0.03653105    -0.15590
F3723       F  0.66818573  0.82831834  0.99832801    -0.15590
F3724       F  0.70484677  0.80614112  0.99875496    -0.13230
C3725       C  0.73934878  0.81891069  0.04932877     0.24780
C3726       C  0.72564118  0.82261403  0.06609933    -0.23320
C3727       C  0.71211281  0.80661919  0.07270815     0.19690
C3728       C  0.71154320  0.78754187  0.06189908     0.24730
C3729       C  0.72457995  0.78434077  0.04451041    -0.23270
C3730       C  0.73880522  0.79992603  0.03863531     0.19630
F3731       F  0.75152860  0.79706163  0.02188191    -0.13230
F3732       F  0.75299098  0.83390108  0.04299965    -0.15590
F3733       F  0.69781475  0.77252797  0.06789689    -0.15590
F3734       F  0.69855994  0.80996258  0.08868767    -0.13230
C3735       C  0.75911734  0.70273754  0.03051622     0.24780
C3736       C  0.75613363  0.71889529  0.01587876    -0.23320
C3737       C  0.77081513  0.72187108  0.99988905     0.19690
C3738       C  0.78875129  0.70955978  0.99906986     0.24730
C3739       C  0.79238462  0.69415218  0.01432653    -0.23270
C3740       C  0.77724955  0.69042198  0.02977311     0.19630
F3741       F  0.78070537  0.67590249  0.04489869    -0.13230
F3742       F  0.74485136  0.69937374  0.04583634    -0.15590
F3743       F  0.80305480  0.71323103  0.98382038    -0.15590
F3744       F  0.76822394  0.73742772  0.98563259    -0.13230
C3745       C  0.53579795  0.94599801  0.03043633     0.24780
C3746       C  0.53236902  0.93038417  0.01533665    -0.23320
C3747       C  0.51738285  0.93352568  0.99956688     0.19690
C3748       C  0.50453708  0.95110844  0.00005738     0.24730
C3749       C  0.50630354  0.96556055  0.01657919    -0.23270
C3750       C  0.52282559  0.96366628  0.03100514     0.19630
F3751       F  0.52534031  0.97806133  0.04643051    -0.13230
F3752       F  0.55034348  0.94318781  0.04568574    -0.15590
F3753       F  0.48884001  0.95285363  0.98581289    -0.15590
F3754       F  0.51401410  0.91865779  0.98473410    -0.13230
C3755       C  0.46296107  0.95996053  0.08739759     0.24780
C3756       C  0.47827777  0.94444878  0.08926538    -0.23320
C3757       C  0.48708082  0.93665346  0.07075091     0.19690
C3758       C  0.48266214  0.94642385  0.05137283     0.24730
C3759       C  0.47106187  0.96547172  0.05028344    -0.23270
C3760       C  0.45784793  0.96819624  0.06787885     0.19630
F3761       F  0.43700544  0.96974870  0.06513547    -0.13230
F3762       F  0.45009519  0.96428030  0.10374866    -0.15590
F3763       F  0.48588880  0.93478339  0.03404832    -0.15590
F3764       F  0.49930871  0.91929116  0.07122138    -0.13230
C3765       C  0.42358368  0.01693521  0.07541243     0.24780
C3766       C  0.40437421  0.00906310  0.06812303    -0.23320
C3767       C  0.40363833  0.99844499  0.04877971     0.19690
C3768       C  0.42171881  0.99575812  0.03695241     0.24730
C3769       C  0.44093463  0.00339656  0.04433617    -0.23270
C3770       C  0.44174428  0.01443552  0.06339274     0.19630
F3771       F  0.46015333  0.02235167  0.07043538    -0.13230
F3772       F  0.42463013  0.02747974  0.09383218    -0.15590
F3773       F  0.42080532  0.98457401  0.01888495    -0.15590
F3774       F  0.38554243  0.98987463  0.04166668    -0.13230
C3775       C  0.53114293  0.00722596  0.99820180     0.24780
C3776       C  0.51252340  0.99975164  0.98934589    -0.23320
C3777       C  0.51252095  0.99331780  0.96824984     0.19690
C3778       C  0.53118602  0.99325880  0.95662431     0.24730
C3779       C  0.55010629  0.99975004  0.96590080    -0.23270
C3780       C  0.54965537  0.00737330  0.98664206     0.19630
F3781       F  0.56714383  0.01523254  0.99580275    -0.13230
F3782       F  0.53136662  0.01440637  0.01821193    -0.15590
F3783       F  0.53089532  0.98598783  0.93666324    -0.15590
F3784       F  0.49458145  0.98659215  0.95908999    -0.13230
C3785       C  0.52288423  0.00788957  0.47937128     0.24780
C3786       C  0.50501288  0.99508399  0.48060352    -0.23320
C3787       C  0.50243925  0.97869670  0.46615008     0.19690
C3788       C  0.51616970  0.97659882  0.44938200     0.24730
C3789       C  0.53279341  0.99074050  0.44682776    -0.23270
C3790       C  0.53665190  0.00583494  0.46238503     0.19630
F3791       F  0.55253632  0.01972445  0.46012770    -0.13230
F3792       F  0.52606510  0.02326703  0.49368327    -0.15590
F3793       F  0.51229037  0.96173233  0.43467244    -0.15590
F3794       F  0.48557792  0.96584711  0.46734540    -0.13230
C3795       C  0.46199845  0.94594789  0.53788613     0.24780
C3796       C  0.47510699  0.96265937  0.54337858    -0.23320
C3797       C  0.48785352  0.96098961  0.56127113     0.19690
C3798       C  0.48795677  0.94243590  0.57308919     0.24730
C3799       C  0.47540605  0.92539818  0.56701193    -0.23270
C3800       C  0.46210112  0.92753384  0.54957610     0.19630
F3801       F  0.44940200  0.91157123  0.54360173    -0.13230
F3802       F  0.44970941  0.94717426  0.52056099    -0.15590
F3803       F  0.50116812  0.94065922  0.58965286    -0.15590
F3804       F  0.50060858  0.97702121  0.56685412    -0.13230
C3805       C  0.45578306  0.04640232  0.48059558     0.24780
C3806       C  0.47016823  0.02959891  0.47915643    -0.23320
C3807       C  0.48452268  0.03217060  0.46235618     0.19690
C3808       C  0.48975821  0.05220197  0.45482637     0.24730
C3809       C  0.47903419  0.06984045  0.46217631    -0.23270
C3810       C  0.46124674  0.06657349  0.47440601     0.19630
F3811       F  0.44730598  0.08233075  0.47747163    -0.13230
F3812       F  0.43504122  0.04258925  0.47973379    -0.15590
F3813       F  0.50455460  0.05415252  0.43975212    -0.15590
F3814       F  0.48931552  0.01594501  0.44969100    -0.13230
C3815       C  0.41888966  0.01484661  0.50625602     0.24780
C3816       C  0.43735491  0.02319600  0.51474535    -0.23320
C3817       C  0.43661004  0.04257103  0.52524938     0.19690
C3818       C  0.41777159  0.05387475  0.52636004     0.24730
C3819       C  0.39932720  0.04566702  0.51752489    -0.23270
C3820       C  0.40015601  0.02602243  0.50742785     0.19630
F3821       F  0.38296308  0.01788115  0.49795254    -0.13230
F3822       F  0.41932177  0.99631336  0.49584291    -0.15590
F3823       F  0.41741877  0.07249062  0.53658672    -0.15590
F3824       F  0.45417944  0.05059674  0.53408808    -0.13230
C3825       C  0.54752109  0.96787034  0.52505336     0.24780
C3826       C  0.54883665  0.94736613  0.51695411    -0.23320
C3827       C  0.53044173  0.93770248  0.50961929     0.19690
C3828       C  0.51145675  0.94882200  0.50918937     0.24730
C3829       C  0.51060628  0.96972790  0.51612240    -0.23270
C3830       C  0.52865066  0.97888221  0.52458683     0.19630
F3831       F  0.52803645  0.99875836  0.53209714    -0.13230
F3832       F  0.56457139  0.97738199  0.53344418    -0.15590
F3833       F  0.49410465  0.93944304  0.50133723    -0.15590
F3834       F  0.53104510  0.91795245  0.50182221    -0.13230
C3835       C  0.71090770  0.04209739  0.30061331     0.24780
C3836       C  0.72669421  0.02690737  0.29811243    -0.23320
C3837       C  0.74273929  0.02568486  0.31311105     0.19690
C3838       C  0.74255163  0.03865747  0.33073506     0.24730
C3839       C  0.72628378  0.05313226  0.33381961    -0.23270
C3840       C  0.71064031  0.05504133  0.31843735     0.19630
F3841       F  0.69442441  0.06843745  0.32134094    -0.13230
F3842       F  0.69542364  0.04391735  0.28616714    -0.15590
F3843       F  0.75785329  0.03646601  0.34534815    -0.15590
F3844       F  0.75804877  0.01108462  0.31123892    -0.13230
C3845       C  0.71269243  0.17906111  0.48038775     0.24780
C3846       C  0.72629239  0.17727505  0.46317692    -0.23320
C3847       C  0.73967835  0.19408218  0.45847811     0.19690
C3848       C  0.74000586  0.21199454  0.47131616     0.24730
C3849       C  0.72700388  0.21325733  0.48903697    -0.23270
C3850       C  0.71308628  0.19681683  0.49317007     0.19630
F3851       F  0.70032593  0.19767429  0.51010955    -0.13230
F3852       F  0.69928725  0.16329123  0.48513453    -0.15590
F3853       F  0.75334299  0.22783587  0.46675219    -0.15590
F3854       F  0.75329641  0.19261411  0.44227926    -0.13230
C3855       C  0.77629328  0.99438170  0.72926838     0.24780
C3856       C  0.75627330  0.00339798  0.73052080    -0.23320
C3857       C  0.74782920  0.01342085  0.71291799     0.19690
C3858       C  0.75871602  0.01362022  0.69402707     0.24730
C3859       C  0.77837194  0.00380886  0.69236955    -0.23270
C3860       C  0.78737681  0.99475554  0.71032808     0.19630
F3861       F  0.80627204  0.98514395  0.70922070    -0.13230
F3862       F  0.78470262  0.98445169  0.74605386    -0.15590
F3863       F  0.74987923  0.02325709  0.67724914    -0.15590
F3864       F  0.72863156  0.02246853  0.71390220    -0.13230
C3865       C  0.00824016  0.99077250  0.46401012     0.24780
C3866       C  0.00822780  0.00110106  0.48342042    -0.23320
C3867       C  0.02578638  0.01261839  0.48966785     0.19690
C3868       C  0.04369687  0.01275747  0.47734206     0.24730
C3869       C  0.04433942  0.00133937  0.45852428    -0.23270
C3870       C  0.02625104  0.99097629  0.45151350     0.19630
F3871       F  0.02650057  0.97994225  0.43335801    -0.13230
F3872       F  0.99115429  0.97989948  0.45762483    -0.15590
F3873       F  0.06069634  0.02357596  0.48411009    -0.15590
F3874       F  0.02581966  0.02306591  0.50819356    -0.13230
C3875       C  0.94044305  0.00855536  0.56273478     0.24780
C3876       C  0.94038335  0.99923518  0.54280720    -0.23320
C3877       C  0.92202177  0.98998945  0.53522126     0.19690
C3878       C  0.90364879  0.99090033  0.54683092     0.24730
C3879       C  0.90320905  0.00123095  0.56630600    -0.23270
C3880       C  0.92192543  0.00945925  0.57451503     0.19630
F3881       F  0.92199365  0.01945782  0.59326264    -0.13230
F3882       F  0.95814906  0.01749829  0.57032189    -0.15590
F3883       F  0.88615328  0.98187483  0.53881916    -0.15590
F3884       F  0.92176920  0.98061356  0.51613265    -0.13230
C3885       C  0.92633158  0.03587957  0.50526103     0.24780
C3886       C  0.94605349  0.03472812  0.51490003    -0.23320
C3887       C  0.95436965  0.05239233  0.52487175     0.19690
C3888       C  0.94359716  0.07131151  0.52443550     0.24730
C3889       C  0.92421692  0.07281088  0.51409323    -0.23270
C3890       C  0.91534211  0.05483208  0.50503943     0.19630
F3891       F  0.89670277  0.05593627  0.49488976    -0.13230
F3892       F  0.91818651  0.01899314  0.49529793    -0.15590
F3893       F  0.95223461  0.08823410  0.53397778    -0.15590
F3894       F  0.97339345  0.05145353  0.53432948    -0.13230
C3895       C  0.95933189  0.02330733  0.46259867     0.24780
C3896       C  0.97283058  0.02927761  0.47884778    -0.23320
C3897       C  0.98465654  0.04771547  0.47683666     0.19690
C3898       C  0.98363979  0.05950838  0.45830338     0.24730
C3899       C  0.97077696  0.05293997  0.44166734    -0.23270
C3900       C  0.95824289  0.03503884  0.44422938     0.19630
F3901       F  0.94514554  0.02867347  0.42872138    -0.13230
F3902       F  0.94767385  0.00563261  0.46429765    -0.15590
F3903       F  0.99610920  0.07654958  0.45612721    -0.15590
F3904       F  0.99757045  0.05392972  0.49252297    -0.13230
C3905       C  0.99030838  0.97383239  0.56297967     0.24780
C3906       C  0.97546042  0.96992848  0.54726600    -0.23320
C3907       C  0.96132504  0.95324453  0.54972625     0.19690
C3908       C  0.96135787  0.94136843  0.56822381     0.24730
C3909       C  0.97559260  0.94601757  0.58435839    -0.23270
C3910       C  0.99040624  0.96198022  0.58132634     0.19630
F3911       F  0.00461366  0.96652715  0.59649245    -0.13230
F3912       F  0.00409594  0.98985456  0.56096095    -0.15590
F3913       F  0.94663654  0.92632580  0.57095178    -0.15590
F3914       F  0.94709928  0.94891995  0.53455102    -0.13230
C3915       C  0.98640354  0.69449102  0.31878080     0.24780
C3916       C  0.97285647  0.69919773  0.33544807    -0.23320
C3917       C  0.95913271  0.71633274  0.33350863     0.19690
C3918       C  0.95964248  0.72911440  0.31580707     0.24730
C3919       C  0.97371144  0.72498103  0.29952743    -0.23270
C3920       C  0.98679997  0.70731110  0.30087537     0.19630
F3921       F  0.00027086  0.70281013  0.28512612    -0.13230
F3922       F  0.00008207  0.67832102  0.32038373    -0.15590
F3923       F  0.94687149  0.74607607  0.31487010    -0.15590
F3924       F  0.94553040  0.72105351  0.34911276    -0.13230
C3925       C  0.96330767  0.55586705  0.45742598     0.24780
C3926       C  0.97608369  0.57302447  0.46261491    -0.23320
C3927       C  0.98982965  0.57128568  0.47977071     0.19690
C3928       C  0.99015812  0.55317935  0.49204763     0.24730
C3929       C  0.97674551  0.53641166  0.48750148    -0.23270
C3930       C  0.96360013  0.53767262  0.46983784     0.19630
F3931       F  0.95058232  0.52159916  0.46505658    -0.13230
F3932       F  0.94961061  0.55725094  0.44122308    -0.15590
F3933       F  0.00298119  0.55234413  0.50899779    -0.15590
F3934       F  0.00261874  0.58743709  0.48498812    -0.13230
C3935       C  0.94979126  0.74978832  0.69192057     0.24780
C3936       C  0.92990238  0.75935272  0.69111470    -0.23320
C3937       C  0.92070861  0.76646775  0.70978814     0.19690
C3938       C  0.93121980  0.76411639  0.72889105     0.24730
C3939       C  0.95101769  0.75441852  0.72958989    -0.23270
C3940       C  0.96030515  0.74754036  0.71095201     0.19630
F3941       F  0.97931834  0.73807436  0.71135474    -0.13230
F3942       F  0.95880720  0.74186182  0.67440787    -0.15590
F3943       F  0.92165938  0.77020086  0.74683418    -0.15590
F3944       F  0.90169930  0.77591853  0.70954245    -0.13230
C3945       C  0.00656063  0.92886073  0.50180637     0.24780
C3946       C  0.02698137  0.92808202  0.51014301    -0.23320
C3947       C  0.03598556  0.94657623  0.51802936     0.19690
C3948       C  0.02423551  0.96514213  0.51879300     0.24730
C3949       C  0.00346229  0.96538602  0.51153549    -0.23270
C3950       C  0.99494463  0.94728327  0.50260911     0.19630
F3951       F  0.97506935  0.94737885  0.49505538    -0.13230
F3952       F  0.99767752  0.91169087  0.49296632    -0.15590
F3953       F  0.03283478  0.98258450  0.52731526    -0.15590
F3954       F  0.05564499  0.94640185  0.52606581    -0.13230
C3955       C  0.74227274  0.21747438  0.94454404     0.24780
C3956       C  0.73131597  0.19847015  0.94285062    -0.23320
C3957       C  0.72075295  0.19052616  0.96040946     0.19690
C3958       C  0.72017738  0.20211146  0.97905069     0.24730
C3959       C  0.73024422  0.22161353  0.98021818    -0.23270
C3960       C  0.74169021  0.22894590  0.96305922     0.19630
F3961       F  0.75179322  0.24761345  0.96408893    -0.13230
F3962       F  0.75323147  0.22516189  0.92806261    -0.15590
F3963       F  0.70925671  0.19469999  0.99565187    -0.15590
F3964       F  0.70993619  0.17230025  0.95908627    -0.13230
C3965       C  0.77771689  0.21578154  0.00393116     0.24780
C3966       C  0.75874352  0.21608479  0.01502209    -0.23320
C3967       C  0.75223065  0.19805610  0.02564707     0.19690
C3968       C  0.76390141  0.17964685  0.02439215     0.24730
C3969       C  0.78246740  0.17897289  0.01261284    -0.23270
C3970       C  0.78964126  0.19735203  0.00291251     0.19630
F3971       F  0.80739821  0.19707650  0.99131857    -0.13230
F3972       F  0.78419060  0.23299106  0.99334970    -0.15590
F3973       F  0.75680766  0.16229572  0.03438451    -0.15590
F3974       F  0.73400187  0.19807379  0.03651304    -0.13230
C3975       C  0.78180123  0.26015938  0.03614257     0.24780
C3976       C  0.76361831  0.25078835  0.04388864    -0.23320
C3977       C  0.76386373  0.24108424  0.06359118     0.19690
C3978       C  0.78254079  0.23998821  0.07506195     0.24730
C3979       C  0.80105303  0.24838663  0.06670940    -0.23270
C3980       C  0.80036339  0.25901189  0.04743585     0.19630
F3981       F  0.81774290  0.26815211  0.03938577    -0.13230
F3982       F  0.78167032  0.26987192  0.01722790    -0.15590
F3983       F  0.78282532  0.22968728  0.09364079    -0.15590
F3984       F  0.74630021  0.23196584  0.07121925    -0.13230
C3985       C  0.43028816  0.21466947  0.27829848     0.24780
C3986       C  0.45039628  0.21424780  0.26945264    -0.23320
C3987       C  0.45771433  0.19578560  0.26019415     0.19690
C3988       C  0.44559444  0.17768142  0.26054588     0.24730
C3989       C  0.42585115  0.17763564  0.27028197    -0.23270
C3990       C  0.41801238  0.19644048  0.27862959     0.19630
F3991       F  0.39906650  0.19685865  0.28814621    -0.13230
F3992       F  0.42289664  0.23243936  0.28725507    -0.15590
F3993       F  0.45331080  0.16007666  0.25148156    -0.15590
F3994       F  0.47693940  0.19521280  0.25121040    -0.13230
C3995       C  0.52873750  0.28317183  0.25714583     0.24780
C3996       C  0.51023677  0.28162172  0.26889186    -0.23320
C3997       C  0.50444896  0.29806835  0.28217923     0.19690
C3998       C  0.51634966  0.31628443  0.28300170     0.24730
C3999       C  0.53427253  0.31841164  0.27047793    -0.23270
C4000       C  0.54076315  0.30151784  0.25798120     0.19630
F4001       F  0.55796306  0.30326328  0.24569662    -0.13230
F4002       F  0.53482320  0.26723028  0.24452568    -0.15590
F4003       F  0.51011937  0.33208509  0.29578188    -0.15590
F4004       F  0.48683782  0.29666206  0.29393956    -0.13230
C4005       C  0.49536062  0.19106787  0.32512730     0.24780
C4006       C  0.48284587  0.19726398  0.34211489    -0.23320
C4007       C  0.46837544  0.21363293  0.33934486     0.19690
C4008       C  0.46719327  0.22432880  0.32034081     0.24730
C4009       C  0.48040975  0.21889016  0.30372187    -0.23270
C4010       C  0.49418943  0.20188141  0.30602943     0.19630
F4011       F  0.50708881  0.19636830  0.29011530    -0.13230
F4012       F  0.50965725  0.17552758  0.32745612    -0.15590
F4013       F  0.45395517  0.24085628  0.31853376    -0.15590
F4014       F  0.45565022  0.21961236  0.35525400    -0.13230
C4015       C  0.69735422  0.25917045  0.44810621     0.24780
C4016       C  0.67789242  0.24907143  0.44599700    -0.23320
C4017       C  0.66863786  0.23992537  0.46373915     0.19690
C4018       C  0.67931554  0.23976357  0.48294356     0.24730
C4019       C  0.69918138  0.24898589  0.48460158    -0.23270
C4020       C  0.70785331  0.25910832  0.46722876     0.19630
F4021       F  0.72697117  0.26826700  0.46864504    -0.13230
F4022       F  0.70639690  0.26895053  0.43157169    -0.15590
F4023       F  0.67071392  0.22982624  0.49958611    -0.15590
F4024       F  0.64992641  0.23003094  0.46218463    -0.13230
C4025       C  0.55301180  0.23867574  0.29955300     0.24780
C4026       C  0.55380549  0.24796039  0.31953003    -0.23320
C4027       C  0.53521950  0.25544288  0.32859854     0.19690
C4028       C  0.51641092  0.25486192  0.31724893     0.24730
C4029       C  0.51602494  0.24656397  0.29687813    -0.23270
C4030       C  0.53430030  0.23799876  0.28837533     0.19630
F4031       F  0.53407854  0.22943283  0.26891232    -0.13230
F4032       F  0.57044703  0.23040732  0.29069757    -0.15590
F4033       F  0.49883552  0.26317779  0.32572761    -0.15590
F4034       F  0.53552402  0.26446282  0.34783557    -0.13230
C4035       C  0.72266398  0.44467276  0.20914866     0.24780
C4036       C  0.73280309  0.42664163  0.21676711    -0.23320
C4037       C  0.74266450  0.42751031  0.23651273     0.19690
C4038       C  0.74134293  0.44545103  0.24886432     0.24730
C4039       C  0.73060421  0.46315335  0.24165181    -0.23270
C4040       C  0.72162277  0.46287378  0.22152788     0.19630
F4041       F  0.71134311  0.47995094  0.21418410    -0.13230
F4042       F  0.71283970  0.44431049  0.19029945    -0.15590
F4043       F  0.75045230  0.44552225  0.26809649    -0.15590
F4044       F  0.75355045  0.41085249  0.24400644    -0.13230
C4045       C  0.71511502  0.28747400  0.08407068     0.24780
C4046       C  0.72979042  0.30366003  0.08677859    -0.23320
C4047       C  0.74329507  0.30864348  0.07017699     0.19690
C4048       C  0.74280311  0.29688204  0.05157511     0.24730
C4049       C  0.72881810  0.28000377  0.04940602    -0.23270
C4050       C  0.71464759  0.27578439  0.06558884     0.19630
F4051       F  0.70097658  0.25962054  0.06386086    -0.13230
F4052       F  0.70157582  0.28256283  0.09966010    -0.15590
F4053       F  0.75640457  0.30151684  0.03599067    -0.15590
F4054       F  0.75785705  0.32391882  0.07250482    -0.13230
C4055       C  0.92201922  0.18977217  0.25780568     0.24780
C4056       C  0.90299279  0.19770189  0.26556359    -0.23320
C4057       C  0.90276426  0.21792482  0.27448455     0.19690
C4058       C  0.92057512  0.23038923  0.27428584     0.24730
C4059       C  0.93922791  0.22290502  0.26570558    -0.23270
C4060       C  0.94007929  0.20234477  0.25789512     0.19630
F4061       F  0.95819372  0.19470485  0.24992747    -0.13230
F4062       F  0.92292865  0.17031451  0.24934066    -0.15590
F4063       F  0.91965033  0.24994643  0.28258258    -0.15590
F4064       F  0.88527973  0.22576872  0.28360617    -0.13230
C4065       C  0.75762546  0.06781984  0.25196061     0.24780
C4066       C  0.77837557  0.06889817  0.25942558    -0.23320
C4067       C  0.78786820  0.05058449  0.26719485     0.19690
C4068       C  0.77630312  0.03197494  0.26877270     0.24730
C4069       C  0.75514470  0.03158627  0.26276395    -0.23270
C4070       C  0.74609818  0.04945912  0.25390351     0.19630
F4071       F  0.72592858  0.04909988  0.24718615    -0.13230
F4072       F  0.74834650  0.08462527  0.24281899    -0.15590
F4073       F  0.78553511  0.01455841  0.27668974    -0.15590
F4074       F  0.80790341  0.05093056  0.27421591    -0.13230
C4075       C  0.69035043  0.75944599  0.47268208     0.24780
C4076       C  0.69150670  0.74898617  0.49200061    -0.23320
C4077       C  0.67424754  0.73756680  0.49910981     0.19690
C4078       C  0.65565504  0.73745700  0.48773791     0.24730
C4079       C  0.65394875  0.74872085  0.46886610    -0.23270
C4080       C  0.67164552  0.75922072  0.46107641     0.19630
F4081       F  0.67049954  0.77009325  0.44286260    -0.13230
F4082       F  0.70710798  0.77019785  0.46537736    -0.15590
F4083       F  0.63921668  0.72637127  0.49531047    -0.15590
F4084       F  0.67530456  0.72688901  0.51747374    -0.13230
C4085       C  0.77241928  0.71190005  0.50598478     0.24780
C4086       C  0.75326730  0.71149216  0.51682105    -0.23320
C4087       C  0.74524332  0.69238912  0.52398328     0.19690
C4088       C  0.75646926  0.67395193  0.52098703     0.24730
C4089       C  0.77588206  0.67427921  0.51059561    -0.23270
C4090       C  0.78384710  0.69339758  0.50322029     0.19630
F4091       F  0.80245308  0.69407454  0.49306076    -0.13230
F4092       F  0.78031934  0.73027866  0.49888490    -0.15590
F4093       F  0.74863701  0.65587525  0.52891488    -0.15590
F4094       F  0.72672638  0.69176703  0.53433020    -0.13230
C4095       C  0.77745789  0.72955848  0.55135056     0.24780
C4096       C  0.75885539  0.74102869  0.55487134    -0.23320
C4097       C  0.75879809  0.75157740  0.57444818     0.19690
C4098       C  0.77770920  0.75773481  0.58406641     0.24730
C4099       C  0.79683025  0.75153695  0.57529591    -0.23270
C4100       C  0.79640489  0.73634668  0.55954064     0.19630
F4101       F  0.81400488  0.72551154  0.55457030    -0.13230
F4102       F  0.77664859  0.70858100  0.54885848    -0.15590
F4103       F  0.77726830  0.76953664  0.60172697    -0.15590
F4104       F  0.74095688  0.75350025  0.58558546    -0.13230
C4105       C  0.70820474  0.80174307  0.51138355     0.24780
C4106       C  0.69930835  0.78376695  0.52020176    -0.23320
C4107       C  0.67850410  0.78457088  0.52733933     0.19690
C4108       C  0.66720401  0.80342065  0.52666014     0.24730
C4109       C  0.67650933  0.82172009  0.51874135    -0.23270
C4110       C  0.69695402  0.82046895  0.51055018     0.19630
F4111       F  0.70611402  0.83738014  0.50155473    -0.13230
F4112       F  0.72797120  0.80115321  0.50367418    -0.15590
F4113       F  0.64757170  0.80397578  0.53465451    -0.15590
F4114       F  0.66930096  0.76729222  0.53548496    -0.13230
C4115       C  0.71446075  0.70273422  0.48136994     0.24780
C4116       C  0.72615910  0.72120293  0.48384102    -0.23320
C4117       C  0.73926529  0.72786329  0.46759979     0.19690
C4118       C  0.74050268  0.71645142  0.44902596     0.24730
C4119       C  0.72845427  0.69822833  0.44623309    -0.23270
C4120       C  0.71563424  0.69127196  0.46266801     0.19630
F4121       F  0.70352253  0.67400131  0.46023931    -0.13230
F4122       F  0.70170490  0.69601678  0.49691240    -0.15590
F4123       F  0.75354811  0.72322634  0.43371312    -0.15590
F4124       F  0.75077596  0.74559499  0.46972550    -0.13230
C4125       C  0.22256355  0.69973102  0.98270324     0.24780
C4126       C  0.22811355  0.72098985  0.98380240    -0.23320
C4127       C  0.23487632  0.73121242  0.96563815     0.19690
C4128       C  0.23512499  0.72080145  0.94645638     0.24730
C4129       C  0.22840335  0.69982570  0.94489921    -0.23270
C4130       C  0.22278051  0.68917643  0.96338617     0.19630
F4131       F  0.21645451  0.66892379  0.96266147    -0.13230
F4132       F  0.21608823  0.68946325  0.00010477    -0.15590
F4133       F  0.24202232  0.73139982  0.92940529    -0.15590
F4134       F  0.24084703  0.75159911  0.96644580    -0.13230
C4135       C  0.21317321  0.56969097  0.80116719     0.24780
C4136       C  0.22298069  0.57202669  0.82078831    -0.23320
C4137       C  0.23292371  0.55454242  0.82984453     0.19690
C4138       C  0.23498086  0.53581778  0.81841834     0.24730
C4139       C  0.22690647  0.53437986  0.79798422    -0.23270
C4140       C  0.21488296  0.55098006  0.79006754     0.19630
F4141       F  0.20609170  0.54957962  0.77072717    -0.13230
F4142       F  0.20231780  0.58574574  0.79240919    -0.15590
F4143       F  0.24503956  0.51925707  0.82712548    -0.15590
F4144       F  0.24155016  0.55590586  0.84922169    -0.13230
C4145       C  0.00703531  0.80647404  0.76597548     0.24780
C4146       C  0.00682788  0.78681506  0.77637868    -0.23320
C4147       C  0.02494433  0.78359886  0.78865976     0.19690
C4148       C  0.04414001  0.79168194  0.78247436     0.24730
C4149       C  0.04500830  0.80745281  0.76730165    -0.23270
C4150       C  0.02605229  0.81610925  0.76041331     0.19630
F4151       F  0.02583502  0.83392321  0.74884703    -0.13230
F4152       F  0.98948634  0.81818092  0.76471414    -0.15590
F4153       F  0.06134750  0.78681186  0.79400770    -0.15590
F4154       F  0.02306492  0.78184269  0.80966292    -0.13230
C4155       C  0.17142892  0.77057058  0.52565916     0.24780
C4156       C  0.18982283  0.77817319  0.51655022    -0.23320
C4157       C  0.18980898  0.79808516  0.50720800     0.19690
C4158       C  0.17122428  0.80979821  0.50609701     0.24730
C4159       C  0.15246743  0.80154346  0.51410152    -0.23270
C4160       C  0.15295258  0.78209104  0.52447240     0.19630
F4161       F  0.13542127  0.77404310  0.53331412    -0.13230
F4162       F  0.17126393  0.75158463  0.53521824    -0.15590
F4163       F  0.17129580  0.82854768  0.49612028    -0.15590
F4164       F  0.20754235  0.80575152  0.49846926    -0.13230
C4165       C  0.23859483  0.79995235  0.54150281     0.24780
C4166       C  0.22459986  0.78365642  0.54589490    -0.23320
C4167       C  0.21068348  0.78570978  0.56279882     0.19690
C4168       C  0.21015825  0.80430107  0.57452507     0.24730
C4169       C  0.22355677  0.82096132  0.56944326    -0.23270
C4170       C  0.23810044  0.81841502  0.55316239     0.19630
F4171       F  0.25144404  0.83414644  0.54812259    -0.13230
F4172       F  0.25207920  0.79835238  0.52519170    -0.15590
F4173       F  0.19567102  0.80656480  0.58985596    -0.15590
F4174       F  0.19716331  0.77004090  0.56744770    -0.13230
C4175       C  0.23624928  0.71195981  0.46980824     0.24780
C4176       C  0.22389459  0.71435985  0.48780861    -0.23320
C4177       C  0.21064506  0.69807535  0.49407409     0.19690
C4178       C  0.21031312  0.67927545  0.48304962     0.24730
C4179       C  0.22335914  0.67637218  0.46560899    -0.23270
C4180       C  0.23596881  0.69300777  0.45871145     0.19630
F4181       F  0.24893310  0.69044345  0.44211161    -0.13230
F4182       F  0.24904504  0.72764602  0.46346651    -0.15590
F4183       F  0.19752701  0.66367960  0.48969959    -0.15590
F4184       F  0.19865843  0.70011224  0.51147906    -0.13230
C4185       C  0.20280714  0.76034556  0.46394005     0.24780
C4186       C  0.19557627  0.74959554  0.48161454    -0.23320
C4187       C  0.17586578  0.73982764  0.48089253     0.19690
C4188       C  0.16388641  0.74028262  0.46242156     0.24730
C4189       C  0.17163069  0.75025357  0.44441885    -0.23270
C4190       C  0.19100647  0.76067570  0.44553858     0.19630
F4191       F  0.19867226  0.77105249  0.42866729    -0.13230
F4192       F  0.22165146  0.77013111  0.46439226    -0.15590
F4193       F  0.14535175  0.72996493  0.46175444    -0.15590
F4194       F  0.16853467  0.72930013  0.49777504    -0.13230
C4195       C  0.27398636  0.75759910  0.55146393     0.24780
C4196       C  0.25374909  0.74899262  0.55113354    -0.23320
C4197       C  0.24561330  0.74012233  0.56943270     0.19690
C4198       C  0.25701679  0.74066732  0.58805813     0.24730
C4199       C  0.27689192  0.75017099  0.58881594    -0.23270
C4200       C  0.28556292  0.75806669  0.57019222     0.19630
F4201       F  0.30465034  0.76733490  0.57038164    -0.13230
F4202       F  0.28215956  0.76631449  0.53394329    -0.15590
F4203       F  0.24845687  0.73200954  0.60545335    -0.15590
F4204       F  0.22623091  0.73143644  0.56935575    -0.13230
C4205       C  0.27730200  0.72657725  0.50527207     0.24780
C4206       C  0.25940899  0.71995180  0.51600245    -0.23320
C4207       C  0.25944153  0.70020227  0.52573975     0.19690
C4208       C  0.27758571  0.68769837  0.52555219     0.24730
C4209       C  0.29593222  0.69495035  0.51581010    -0.23270
C4210       C  0.29535034  0.71428163  0.50518261     0.19630
F4211       F  0.31241913  0.72144606  0.49480836    -0.13230
F4212       F  0.27740384  0.74529275  0.49519285    -0.15590
F4213       F  0.27757661  0.66912347  0.53584738    -0.15590
F4214       F  0.24213336  0.69334194  0.53588298    -0.13230
C4215       C  0.20561806  0.19206468  0.45996453     0.24780
C4216       C  0.22037473  0.19629889  0.44427578    -0.23320
C4217       C  0.23620392  0.21105138  0.44810708     0.19690
C4218       C  0.23677246  0.22208451  0.46695295     0.24730
C4219       C  0.22147970  0.21863958  0.48229443    -0.23270
C4220       C  0.20616810  0.20317909  0.47891334     0.19630
F4221       F  0.19141016  0.19934759  0.49364426    -0.13230
F4222       F  0.18994694  0.17818316  0.45640426    -0.15590
F4223       F  0.25168610  0.23693257  0.46984062    -0.15590
F4224       F  0.25078515  0.21522371  0.43326036    -0.13230
C4225       C  0.20846452  0.07048092  0.29918042     0.24780
C4226       C  0.22179803  0.07419906  0.31632003    -0.23320
C4227       C  0.23614006  0.05869439  0.32238142     0.19690
C4228       C  0.23759272  0.03999709  0.31100852     0.24730
C4229       C  0.22449488  0.03648183  0.29360915    -0.23270
C4230       C  0.20975729  0.05175450  0.28798725     0.19630
F4231       F  0.19704967  0.04875012  0.27119529    -0.13230
F4232       F  0.19434919  0.08517061  0.29309637    -0.15590
F4233       F  0.25208744  0.02557160  0.31669988    -0.15590
F4234       F  0.24956335  0.06217537  0.33850253    -0.13230
C4235       C  0.16752000  0.44481529  0.25276877     0.24780
C4236       C  0.17537634  0.42502375  0.25836889    -0.23320
C4237       C  0.19545627  0.42355172  0.26740226     0.19690
C4238       C  0.20742347  0.44145925  0.27079746     0.24730
C4239       C  0.19951027  0.46124616  0.26547403    -0.23270
C4240       C  0.17967912  0.46282511  0.25594924     0.19630
F4241       F  0.17193515  0.48181552  0.25039515    -0.13230
F4242       F  0.14832645  0.44663424  0.24383865    -0.15590
F4243       F  0.22640900  0.43966922  0.28019133    -0.15590
F4244       F  0.20325231  0.40481831  0.27373426    -0.13230
C4245       C  0.02727147  0.31276210  0.27645672     0.24780
C4246       C  0.04493075  0.30510688  0.26581371    -0.23320
C4247       C  0.04328443  0.28637938  0.25432166     0.19690
C4248       C  0.02480351  0.27489030  0.25448054     0.24730
C4249       C  0.00760860  0.28182284  0.26610733    -0.23270
C4250       C  0.00866874  0.30107187  0.27669320     0.19630
F4251       F  0.99198164  0.30813095  0.28772421    -0.13230
F4252       F  0.02842489  0.33083024  0.28757394    -0.15590
F4253       F  0.02387626  0.25650321  0.24383211    -0.15590
F4254       F  0.05975856  0.27896821  0.24316679    -0.13230
C4255       C  0.42426979  0.23909965  0.21050637     0.24780
C4256       C  0.40708082  0.25055346  0.21813404    -0.23320
C4257       C  0.40946717  0.26228964  0.23666235     0.19690
C4258       C  0.42823448  0.26180738  0.24782245     0.24730
C4259       C  0.44498950  0.24955962  0.24080692    -0.23270
C4260       C  0.44310921  0.23851325  0.22187499     0.19630
F4261       F  0.45924892  0.22668102  0.21481305    -0.13230
F4262       F  0.42244360  0.22755343  0.19276256    -0.15590
F4263       F  0.42987198  0.27280492  0.26595483    -0.15590
F4264       F  0.39350620  0.27413796  0.24413688    -0.13230
C4265       C  0.28829719  0.26095159  0.07318249     0.24780
C4266       C  0.28229199  0.24894157  0.09059388    -0.23320
C4267       C  0.26445060  0.23613968  0.08907986     0.19690
C4268       C  0.25226041  0.23611777  0.07093239     0.24730
C4269       C  0.25758473  0.24890938  0.05394118    -0.23270
C4270       C  0.27595769  0.26098355  0.05494251     0.19630
F4271       F  0.28157579  0.27324511  0.03856981    -0.13230
F4272       F  0.30527749  0.27363641  0.07433356    -0.15590
F4273       F  0.23474819  0.22412347  0.07018121    -0.15590
F4274       F  0.25849837  0.22401247  0.10547612    -0.13230
C4275       C  0.72646150  0.71276808  0.96780949     0.24780
C4276       C  0.72012134  0.71347357  0.98884515    -0.23320
C4277       C  0.71225912  0.69539636  0.99837020     0.19690
C4278       C  0.71181573  0.67652520  0.98750528     0.24730
C4279       C  0.71945053  0.67531605  0.96687438    -0.23270
C4280       C  0.72610276  0.69375073  0.95683691     0.19630
F4281       F  0.73340034  0.69314850  0.93691308    -0.13230
F4282       F  0.73378820  0.73022569  0.95822519    -0.15590
F4283       F  0.70404977  0.65936198  0.99730950    -0.15590
F4284       F  0.70543792  0.69598388  0.01848691    -0.13230
C4285       C  0.66718062  0.30265923  0.02267005     0.24780
C4286       C  0.67580610  0.32165067  0.01565375    -0.23320
C4287       C  0.69599267  0.32159780  0.00686811     0.19690
C4288       C  0.70778879  0.30327320  0.00633329     0.24730
C4289       C  0.69970450  0.28462432  0.01448902    -0.23270
C4290       C  0.67913695  0.28422613  0.02218654     0.19630
F4291       F  0.67100181  0.26626417  0.03002078    -0.13230
F4292       F  0.64774489  0.30219833  0.03113873    -0.15590
F4293       F  0.72744702  0.30380891  0.99834216    -0.15590
F4294       F  0.70446606  0.33939350  0.99895528    -0.13230
C4295       C  0.53134380  0.44072667  0.00872554     0.24780
C4296       C  0.54976729  0.44701245  0.01898966    -0.23320
C4297       C  0.54952031  0.46524157  0.03136503     0.19690
C4298       C  0.53155074  0.47753355  0.03259070     0.24730
C4299       C  0.51356227  0.47198424  0.02133651    -0.23270
C4300       C  0.51333585  0.45326791  0.00976825     0.19630
F4301       F  0.49593973  0.44755646  0.99899456    -0.13230
F4302       F  0.53118673  0.42321022  0.99670228    -0.15590
F4303       F  0.53192083  0.49536732  0.04416266    -0.15590
F4304       F  0.56688230  0.47139267  0.04199003    -0.13230
C4305       C  0.90293887  0.49355668  0.04829470     0.24780
C4306       C  0.90271398  0.50123020  0.06899152    -0.23320
C4307       C  0.92165641  0.50788512  0.07810558     0.19690
C4308       C  0.94019579  0.50789070  0.06630363     0.24730
C4309       C  0.93997623  0.50111637  0.04535514    -0.23270
C4310       C  0.92131140  0.49362379  0.03664273     0.19630
F4311       F  0.92090851  0.48638318  0.01665312    -0.13230
F4312       F  0.88534356  0.48580738  0.03923925    -0.15590
F4313       F  0.95815851  0.51509342  0.07505504    -0.15590
F4314       F  0.92203503  0.51531159  0.09800816    -0.13230
C4315       C  0.78704208  0.48701829  0.21492893     0.24780
C4316       C  0.78092531  0.50036851  0.19855486    -0.23320
C4317       C  0.76382244  0.51390716  0.20150077     0.19690
C4318       C  0.75246272  0.51345618  0.22012473     0.24730
C4319       C  0.75786115  0.49936175  0.23606567    -0.23270
C4320       C  0.77549610  0.48643284  0.23356571     0.19630
F4321       F  0.78110107  0.47278795  0.24884287    -0.13230
F4322       F  0.80327521  0.47358001  0.21232889    -0.15590
F4323       F  0.73556258  0.52615137  0.22227763    -0.15590
F4324       F  0.75777339  0.52722574  0.18606121    -0.13230
C4325       C  0.74054960  0.45215136  0.73368132     0.24780
C4326       C  0.72719982  0.46962087  0.73481532    -0.23320
C4327       C  0.71352178  0.47383025  0.71816007     0.19690
C4328       C  0.71380787  0.46141017  0.70020743     0.24730
C4329       C  0.72785557  0.44455900  0.69852591    -0.23270
C4330       C  0.74089468  0.43967485  0.71557797     0.19630
F4331       F  0.75486947  0.42374425  0.71415289    -0.13230
F4332       F  0.75364717  0.44759230  0.74978000    -0.15590
F4333       F  0.70077049  0.46624689  0.68410475    -0.15590
F4334       F  0.70047357  0.49058381  0.71896127    -0.13230
C4335       C  0.67426294  0.51172992  0.79107499     0.24780
C4336       C  0.69214452  0.50080754  0.79753097    -0.23320
C4337       C  0.69226893  0.49084671  0.81715589     0.19690
C4338       C  0.67426178  0.49103832  0.82974673     0.24730
C4339       C  0.65595027  0.50103503  0.82269112    -0.23270
C4340       C  0.65636449  0.51187499  0.80349443     0.19630
F4341       F  0.63924410  0.52239942  0.79655328    -0.13230
F4342       F  0.67399630  0.52185015  0.77237948    -0.15590
F4343       F  0.67431965  0.48045389  0.84816271    -0.15590
F4344       F  0.70957367  0.48045420  0.82377213    -0.13230
C4345       C  0.74018573  0.52441202  0.81868213     0.24780
C4346       C  0.72677774  0.52986923  0.80218748    -0.23320
C4347       C  0.71371100  0.54744977  0.80416575     0.19690
C4348       C  0.71320850  0.55869658  0.82301500     0.24730
C4349       C  0.72576639  0.55239574  0.83996507    -0.23270
C4350       C  0.73973754  0.53559081  0.83739226     0.19630
F4351       F  0.75258846  0.52961522  0.85326166    -0.13230
F4352       F  0.75301599  0.50755342  0.81698011    -0.15590
F4353       F  0.69948281  0.57475800  0.82518961    -0.15590
F4354       F  0.70092581  0.55319056  0.78819539    -0.13230
C4355       C  0.66503457  0.44752309  0.75990864     0.24780
C4356       C  0.67304613  0.42874359  0.76815276    -0.23320
C4357       C  0.69290462  0.42889995  0.77777047     0.19690
C4358       C  0.70492523  0.44711326  0.77814094     0.24730
C4359       C  0.69743485  0.46554693  0.76891522    -0.23270
C4360       C  0.67723475  0.46580258  0.76015265     0.19630
F4361       F  0.66969811  0.48345017  0.75106395    -0.13230
F4362       F  0.64599799  0.44786137  0.75048282    -0.15590
F4363       F  0.72422747  0.44665062  0.78704401    -0.15590
F4364       F  0.70084134  0.41128887  0.78665615    -0.13230
C4365       C  0.77965158  0.48930487  0.74712790     0.24780
C4366       C  0.76168594  0.49939110  0.73961693    -0.23320
C4367       C  0.76213829  0.50906073  0.71986476     0.19690
C4368       C  0.78071595  0.50931479  0.70813135     0.24730
C4369       C  0.79903270  0.50007351  0.71618743    -0.23270
C4370       C  0.79810860  0.48959063  0.73556315     0.19630
F4371       F  0.81520304  0.47973365  0.74347829    -0.13230
F4372       F  0.77945609  0.47967128  0.76608021    -0.15590
F4373       F  0.78111973  0.51958988  0.68954589    -0.15590
F4374       F  0.74483899  0.51882828  0.71233811    -0.13230
C4375       C  0.94005280  0.68491886  0.25321458     0.24780
C4376       C  0.92070127  0.68370738  0.26364192    -0.23320
C4377       C  0.91260906  0.70176233  0.27329490     0.19690
C4378       C  0.92447635  0.72024567  0.27382272     0.24730
C4379       C  0.94449230  0.72071605  0.26477693    -0.23270
C4380       C  0.95188394  0.70316603  0.25398131     0.19630
F4381       F  0.97091921  0.70358921  0.24459630    -0.13230
F4382       F  0.94780312  0.66819959  0.24262784    -0.15590
F4383       F  0.91679125  0.73736885  0.28374006    -0.15590
F4384       F  0.89391723  0.70114422  0.28328728    -0.13230
C4385       C  0.78021897  0.56111909  0.26633896     0.24780
C4386       C  0.79953979  0.55234610  0.27240715    -0.23320
C4387       C  0.79997412  0.53128674  0.27914935     0.19690
C4388       C  0.78208303  0.51899911  0.27833461     0.24730
C4389       C  0.76312337  0.52743317  0.27141947    -0.23270
C4390       C  0.76207580  0.54870083  0.26589490     0.19630
F4391       F  0.74366319  0.55724846  0.25964764    -0.13230
F4392       F  0.77899309  0.58138212  0.26011686    -0.15590
F4393       F  0.78319937  0.49868738  0.28452743    -0.15590
F4394       F  0.81765943  0.52242001  0.28689430    -0.13230
C4395       C  0.02490277  0.51043325  0.48197598     0.24780
C4396       C  0.00507016  0.50104499  0.48279774    -0.23320
C4397       C  0.99705971  0.49100528  0.46502525     0.19690
C4398       C  0.00819259  0.49117450  0.44631582     0.24730
C4399       C  0.02756261  0.50157149  0.44497718    -0.23270
C4400       C  0.03614782  0.51066237  0.46313571     0.19630
F4401       F  0.05474955  0.52083843  0.46234130    -0.13230
F4402       F  0.03295636  0.52004271  0.49913270    -0.15590
F4403       F  0.99984655  0.48133577  0.42940541    -0.15590
F4404       F  0.97803531  0.48158442  0.46567066    -0.13230
C4405       C  0.17462717  0.50562064  0.33328418     0.24780
C4406       C  0.15609638  0.49742482  0.32483132    -0.23320
C4407       C  0.15782273  0.48170640  0.30970261     0.19690
C4408       C  0.17733172  0.47627958  0.30184133     0.24730
C4409       C  0.19479676  0.48955172  0.30470803    -0.23270
C4410       C  0.19396954  0.50071901  0.32392541     0.19630
F4411       F  0.21145208  0.50384206  0.33543050    -0.13230
F4412       F  0.17412751  0.51795676  0.35057453    -0.15590
F4413       F  0.18017136  0.45541493  0.29990503    -0.15590
F4414       F  0.14122106  0.46924495  0.30510059    -0.13230
C4415       C  0.98207257  0.30932872  0.20831759     0.24780
C4416       C  0.96929216  0.32575003  0.21550601    -0.23320
C4417       C  0.95714658  0.32270825  0.23358736     0.19690
C4418       C  0.95857532  0.30411494  0.24489689     0.24730
C4419       C  0.97187101  0.28801464  0.23821848    -0.23270
C4420       C  0.98332918  0.29050597  0.21962898     0.19630
F4421       F  0.99610881  0.27499794  0.21280269    -0.13230
F4422       F  0.99419466  0.31194897  0.19110453    -0.15590
F4423       F  0.94734727  0.30199345  0.26279103    -0.15590
F4424       F  0.94403619  0.33792956  0.24050796    -0.13230
C4425       C  0.98900241  0.46448342  0.08587336     0.24780
C4426       C  0.97328003  0.44945916  0.08902115    -0.23320
C4427       C  0.95909993  0.44510598  0.07277798     0.19690
C4428       C  0.96000613  0.45643719  0.05400488     0.24730
C4429       C  0.97508461  0.47224179  0.05135505    -0.23270
C4430       C  0.98993135  0.47572820  0.06717647     0.19630
F4431       F  0.00461593  0.49090611  0.06496204    -0.13230
F4432       F  0.00305936  0.46876277  0.10125558    -0.15590
F4433       F  0.94568873  0.45259161  0.03877737    -0.15590
F4434       F  0.94352262  0.43098275  0.07565776    -0.13230
C4435       C  0.21670682  0.04456301  0.80522152     0.24780
C4436       C  0.22946182  0.02678121  0.80271374    -0.23320
C4437       C  0.24339415  0.02127324  0.81878139     0.19690
C4438       C  0.24397663  0.03272128  0.83741966     0.24730
C4439       C  0.23067462  0.05004141  0.84038288    -0.23270
C4440       C  0.21735583  0.05616833  0.82392960     0.19630
F4441       F  0.20410159  0.07256855  0.82644743    -0.13230
F4442       F  0.20328466  0.05035937  0.78980693    -0.15590
F4443       F  0.25736039  0.02663359  0.85279493    -0.15590
F4444       F  0.25597642  0.00427746  0.81665977    -0.13230
C4445       C  0.17429922  0.98657210  0.82678581     0.24780
C4446       C  0.15614001  0.99615481  0.81880082    -0.23320
C4447       C  0.15743493  0.00792089  0.80022628     0.19690
C4448       C  0.17613197  0.00899306  0.78916121     0.24730
C4449       C  0.19391773  0.99844478  0.79644453    -0.23270
C4450       C  0.19312414  0.98762897  0.81556359     0.19630
F4451       F  0.21026073  0.97736924  0.82280312    -0.13230
F4452       F  0.17347813  0.97510871  0.84464870    -0.15590
F4453       F  0.17670240  0.01966001  0.77077851    -0.15590
F4454       F  0.14043978  0.01811756  0.79253024    -0.13230
C4455       C  0.17940560  0.96405004  0.75665992     0.24780
C4456       C  0.19878725  0.96414189  0.76707471    -0.23320
C4457       C  0.20553653  0.94613270  0.77757973     0.19690
C4458       C  0.19360865  0.92790992  0.77693479     0.24730
C4459       C  0.17466017  0.92732375  0.76565801    -0.23270
C4460       C  0.16731174  0.94573120  0.75605476     0.19630
F4461       F  0.14914139  0.94562992  0.74503858    -0.13230
F4462       F  0.17261173  0.98140034  0.74646572    -0.15590
F4463       F  0.20079482  0.91068745  0.78712768    -0.15590
F4464       F  0.22412840  0.94603927  0.78790567    -0.13230
C4465       C  0.27744542  0.03358817  0.77426450     0.24780
C4466       C  0.25676863  0.03309030  0.76682455    -0.23320
C4467       C  0.24769085  0.05133655  0.75875419     0.19690
C4468       C  0.25862836  0.07014870  0.75908162     0.24730
C4469       C  0.27894524  0.07111031  0.76757046    -0.23270
C4470       C  0.28855898  0.05253606  0.77453891     0.19630
F4471       F  0.30818331  0.05294168  0.78265744    -0.13230
F4472       F  0.28651429  0.01597679  0.78194097    -0.15590
F4473       F  0.24922530  0.08748538  0.75114162    -0.15590
F4474       F  0.22790178  0.05097449  0.75098650    -0.13230
C4475       C  0.23649799  0.95096774  0.72952322     0.24780
C4476       C  0.22656314  0.97048840  0.73164636    -0.23320
C4477       C  0.21461432  0.97834416  0.71500290     0.19690
C4478       C  0.21316615  0.96732168  0.69621024     0.24730
C4479       C  0.22387965  0.94823893  0.69354138    -0.23270
C4480       C  0.23517470  0.93988434  0.71054614     0.19630
F4481       F  0.24578484  0.92160446  0.70844861    -0.13230
F4482       F  0.24784230  0.94292532  0.74559086    -0.15590
F4483       F  0.20128292  0.97541596  0.68053426    -0.15590
F4484       F  0.20461735  0.99701084  0.71687638    -0.13230
C4485       C  0.28371294  0.18996122  0.02702404     0.24780
C4486       C  0.30167158  0.19937607  0.01844577    -0.23320
C4487       C  0.29978296  0.21915380  0.00887175     0.19690
C4488       C  0.28076497  0.22979630  0.00898355     0.24730
C4489       C  0.26315887  0.22093288  0.01849502    -0.23270
C4490       C  0.26454279  0.20074773  0.02711196     0.19630
F4491       F  0.24758763  0.19187972  0.03625072    -0.13230
F4492       F  0.28497272  0.17090445  0.03631937    -0.15590
F4493       F  0.27959409  0.24911033  0.00017152    -0.15590
F4494       F  0.31641635  0.22832645  0.99941613    -0.13230
C4495       C  0.41914704  0.05675201  0.00774656     0.24780
C4496       C  0.42836121  0.07471114  0.01648761    -0.23320
C4497       C  0.44829406  0.07306530  0.02579731     0.19690
C4498       C  0.45898885  0.05401126  0.02586069     0.24730
C4499       C  0.45010427  0.03623983  0.01654005    -0.23270
C4500       C  0.43006658  0.03771920  0.00749681     0.19630
F4501       F  0.42135510  0.02099519  0.99777572    -0.13230
F4502       F  0.40009150  0.05788788  0.99841762    -0.15590
F4503       F  0.47829511  0.05294789  0.03470165    -0.15590
F4504       F  0.45747870  0.08993719  0.03490099    -0.13230
C4505       C  0.67574255  0.25999721  0.95424295     0.24780
C4506       C  0.65838270  0.24817090  0.96070194    -0.23320
C4507       C  0.65986964  0.23604813  0.97903460     0.19690
C4508       C  0.67789104  0.23663162  0.99130604     0.24730
C4509       C  0.69474590  0.24936226  0.98556121    -0.23270
C4510       C  0.69385457  0.26067103  0.96670984     0.19630
F4511       F  0.71021139  0.27280585  0.96078729    -0.13230
F4512       F  0.67466000  0.27187117  0.93665995    -0.15590
F4513       F  0.67863806  0.22533357  0.00930212    -0.15590
F4514       F  0.64357640  0.22400370  0.98537381    -0.13230
C4515       C  0.49901474  0.25935716  0.81834831     0.24780
C4516       C  0.50561319  0.24853494  0.80047132    -0.23320
C4517       C  0.52493598  0.23802080  0.80073918     0.19690
C4518       C  0.53717313  0.23778791  0.81900618     0.24730
C4519       C  0.53000885  0.24776219  0.83725004    -0.23270
C4520       C  0.51104347  0.25895844  0.83657918     0.19630
F4521       F  0.50396146  0.26929968  0.85373671    -0.13230
F4522       F  0.48048185  0.26975157  0.81831279    -0.15590
F4523       F  0.55530266  0.22673725  0.81926438    -0.15590
F4524       F  0.53153778  0.22731753  0.78365052    -0.13230
C4525       C  0.47020684  0.42960457  0.05535214     0.24780
C4526       C  0.48311433  0.42774924  0.07313353    -0.23320
C4527       C  0.49378631  0.44555446  0.08049621     0.19690
C4528       C  0.49233530  0.46462234  0.06958383     0.24730
C4529       C  0.48016645  0.46604303  0.05126561    -0.23270
C4530       C  0.46883875  0.44851160  0.04451074     0.19630
F4531       F  0.45710030  0.44949597  0.02679574    -0.13230
F4532       F  0.45917360  0.41290970  0.04818538    -0.15590
F4533       F  0.50343356  0.48140951  0.07636439    -0.15590
F4534       F  0.50661362  0.44413716  0.09739532    -0.13230
C4535       C  0.47284854  0.30702681  0.21314017     0.24780
C4536       C  0.48424360  0.29914423  0.19602579    -0.23320
C4537       C  0.49500600  0.28003107  0.19827242     0.19690
C4538       C  0.49355587  0.26854944  0.21675781     0.24730
C4539       C  0.48165769  0.27602258  0.23355794    -0.23270
C4540       C  0.47158123  0.29550380  0.23184689     0.19630
F4541       F  0.46018459  0.30307566  0.24806188    -0.13230
F4542       F  0.46211113  0.32527116  0.21138973    -0.15590
F4543       F  0.50352097  0.24981984  0.21817768    -0.15590
F4544       F  0.50692842  0.27234488  0.18246970    -0.13230
C4545       C  0.67502646  0.94112825  0.77730389     0.24780
C4546       C  0.65722113  0.94758385  0.76605186    -0.23320
C4547       C  0.65841276  0.96568636  0.75354932     0.19690
C4548       C  0.67658029  0.97773003  0.75320591     0.24730
C4549       C  0.69396448  0.97194937  0.76528044    -0.23270
C4550       C  0.69331331  0.95333313  0.77698781     0.19630
F4551       F  0.71006824  0.94746717  0.78867223    -0.13230
F4552       F  0.67425924  0.92383982  0.78961501    -0.15590
F4553       F  0.67687188  0.99569700  0.74185067    -0.15590
F4554       F  0.64170579  0.97205889  0.74203185    -0.13230
C4555       C  0.28223603  0.01030380  0.70765909     0.24780
C4556       C  0.29914684  0.99742528  0.71339070    -0.23320
C4557       C  0.29715051  0.98415831  0.73084428     0.19690
C4558       C  0.27903181  0.98445928  0.74293218     0.24730
C4559       C  0.26250566  0.99794340  0.73780466    -0.23270
C4560       C  0.26398545  0.01060173  0.71987121     0.19630
F4561       F  0.24808790  0.02368519  0.71465019    -0.13230
F4562       F  0.28390733  0.02348778  0.69109224    -0.15590
F4563       F  0.27791357  0.97215076  0.76022430    -0.15590
F4564       F  0.31303228  0.97120317  0.73650276    -0.13230
C4565       C  0.44320954  0.00737080  0.58538066     0.24780
C4566       C  0.42407987  0.99660466  0.58713569    -0.23320
C4567       C  0.41572457  0.98663151  0.56937185     0.19690
C4568       C  0.42687044  0.98654237  0.55046908     0.24730
C4569       C  0.44627710  0.99680626  0.54902630    -0.23270
C4570       C  0.45414458  0.00747348  0.56651668     0.19630
F4571       F  0.47281340  0.01753578  0.56542888    -0.13230
F4572       F  0.45146854  0.01769320  0.60204307    -0.15590
F4573       F  0.41911125  0.97578188  0.53388880    -0.15590
F4574       F  0.39744596  0.97593062  0.57065601    -0.13230
C4575       C  0.46368297  0.02442530  0.96635632     0.24780
C4576       C  0.47817473  0.02871256  0.98230449    -0.23320
C4577       C  0.49234096  0.04536457  0.97981625     0.19690
C4578       C  0.49248013  0.05701236  0.96116529     0.24730
C4579       C  0.47844089  0.05209921  0.94492802    -0.23270
C4580       C  0.46375293  0.03603844  0.94789627     0.19630
F4581       F  0.44975775  0.03123538  0.93260996    -0.13230
F4582       F  0.45004299  0.00827116  0.96831396    -0.15590
F4583       F  0.50707739  0.07217944  0.95845363    -0.15590
F4584       F  0.50638538  0.04987011  0.99511771    -0.13230
C4585       C  0.48881898  0.19696986  0.78968776     0.24780
C4586       C  0.47643593  0.21397306  0.79583651    -0.23320
C4587       C  0.46465035  0.21266082  0.81433771     0.19690
C4588       C  0.46455066  0.19406054  0.82603271     0.24730
C4589       C  0.47625147  0.17670284  0.81927515    -0.23270
C4590       C  0.48882254  0.17854397  0.80133289     0.19630
F4591       F  0.50078099  0.16224833  0.79477751    -0.13230
F4592       F  0.50028954  0.19796661  0.77185035    -0.15590
F4593       F  0.45205121  0.19255093  0.84310903    -0.15590
F4594       F  0.45273734  0.22906698  0.82061903    -0.13230
C4595       C  0.45529416  0.70022320  0.76036449     0.24780
C4596       C  0.44591947  0.71807791  0.76892922    -0.23320
C4597       C  0.42536753  0.71690800  0.77657054     0.19690
C4598       C  0.41471295  0.69768620  0.77654601     0.24730
C4599       C  0.42464182  0.67950806  0.76904278    -0.23270
C4600       C  0.44480071  0.68115031  0.76037450     0.19630
F4601       F  0.45451050  0.66419860  0.75201814    -0.13230
F4602       F  0.47497900  0.70120447  0.75247445    -0.15590
F4603       F  0.39526524  0.69660851  0.78493006    -0.15590
F4604       F  0.41599307  0.73410280  0.78476250    -0.13230
C4605       C  0.46377969  0.80038599  0.73206255     0.24780
C4606       C  0.47456105  0.78130606  0.73400656    -0.23320
C4607       C  0.48609168  0.77367067  0.71701146     0.19690
C4608       C  0.48621115  0.78442375  0.69803004     0.24730
C4609       C  0.47469062  0.80304562  0.69561384    -0.23270
C4610       C  0.46389830  0.81126716  0.71294100     0.19630
F4611       F  0.45247797  0.82907263  0.71098054    -0.13230
F4612       F  0.45259921  0.80803332  0.74839379    -0.15590
F4613       F  0.49736584  0.77640647  0.68183219    -0.15590
F4614       F  0.49667476  0.75530304  0.71862808    -0.13230
C4615       C  0.49769444  0.80535779  0.77989732     0.24780
C4616       C  0.50365955  0.78745763  0.76871296    -0.23320
C4617       C  0.52266648  0.78754549  0.75764854     0.19690
C4618       C  0.53527583  0.80554731  0.75743072     0.24730
C4619       C  0.52879805  0.82376770  0.76791435    -0.23270
C4620       C  0.51005810  0.82335802  0.77944220     0.19630
F4621       F  0.50352642  0.84057560  0.79005541    -0.13230
F4622       F  0.47947121  0.80557075  0.79077121    -0.15590
F4623       F  0.55310377  0.80560370  0.74594526    -0.15590
F4624       F  0.52865762  0.77051157  0.74650229    -0.13230
C4625       C  0.42183002  0.76514990  0.74637275     0.24780
C4626       C  0.43925865  0.75333527  0.74033137    -0.23320
C4627       C  0.43872346  0.74221284  0.72134586     0.19690
C4628       C  0.42052213  0.74225060  0.70897301     0.24730
C4629       C  0.40265804  0.75321055  0.71564914    -0.23270
C4630       C  0.40369797  0.76507470  0.73420642     0.19630
F4631       F  0.38695384  0.77636658  0.74078383    -0.13230
F4632       F  0.42219161  0.77626870  0.76449778    -0.15590
F4633       F  0.41992258  0.73060428  0.69121153    -0.15590
F4634       F  0.45554654  0.73084163  0.71518625    -0.13230
C4635       C  0.45915693  0.72810613  0.82033152     0.24780
C4636       C  0.47388641  0.72412056  0.80456839    -0.23320
C4637       C  0.48797587  0.70735262  0.80719784     0.19690
C4638       C  0.48786370  0.69539969  0.82572673     0.24730
C4639       C  0.47362360  0.70001182  0.84184375    -0.23270
C4640       C  0.45901321  0.71622259  0.83872386     0.19630
F4641       F  0.44475970  0.72084618  0.85376000    -0.13230
F4642       F  0.44533487  0.74410958  0.81821592    -0.15590
F4643       F  0.50243219  0.68017803  0.82842430    -0.15590
F4644       F  0.50210231  0.70283941  0.79204779    -0.13230
C4645       C  0.90695855  0.71215826  0.75138937     0.24780
C4646       C  0.90559322  0.69596876  0.76606937    -0.23320
C4647       C  0.92435677  0.68723002  0.77340793     0.19690
C4648       C  0.94359456  0.69693295  0.76863140     0.24730
C4649       C  0.94426772  0.71668213  0.75836575    -0.23270
C4650       C  0.92638241  0.72014835  0.74574320     0.19630
F4651       F  0.92869672  0.72155772  0.72475642    -0.13230
F4652       F  0.89010074  0.71733001  0.73947250    -0.15590
F4653       F  0.96098497  0.68505874  0.77027920    -0.15590
F4654       F  0.92420640  0.66919058  0.78461751    -0.13230
C4655       C  0.75705882  0.57242825  0.75792553     0.24780
C4656       C  0.77684825  0.57391256  0.76758728    -0.23320
C4657       C  0.78595875  0.55568498  0.77600627     0.19690
C4658       C  0.77492943  0.53666469  0.77583848     0.24730
C4659       C  0.75482428  0.53557877  0.76694576    -0.23270
C4660       C  0.74622057  0.55348249  0.75763335     0.19630
F4661       F  0.72689557  0.55272432  0.74879795    -0.13230
F4662       F  0.74802977  0.58939788  0.74884262    -0.15590
F4663       F  0.78347523  0.51961119  0.78516568    -0.15590
F4664       F  0.80493941  0.55653752  0.78550820    -0.13230
C4665       C  0.74383620  0.93321954  0.73056179     0.24780
C4666       C  0.73098658  0.93048719  0.71289474    -0.23320
C4667       C  0.71804748  0.94700160  0.70625830     0.19690
C4668       C  0.71711885  0.96557669  0.71793631     0.24730
C4669       C  0.72903480  0.96762548  0.73633643    -0.23270
C4670       C  0.74277720  0.95158214  0.74222156     0.19630
F4671       F  0.75468731  0.95347819  0.75975268    -0.13230
F4672       F  0.75705654  0.91780216  0.73686421    -0.15590
F4673       F  0.70424128  0.98124315  0.71164624    -0.15590
F4674       F  0.70539248  0.94463339  0.68933578    -0.13230
C4675       C  0.74396839  0.80647950  0.57343075     0.24780
C4676       C  0.72855538  0.80498713  0.58900084    -0.23320
C4677       C  0.71167196  0.79124522  0.58618619     0.19690
C4678       C  0.71103911  0.77792140  0.56892506     0.24730
C4679       C  0.72745528  0.77794958  0.55430771    -0.23270
C4680       C  0.74334084  0.79308883  0.55601003     0.19630
F4681       F  0.75893220  0.79383049  0.54165184    -0.13230
F4682       F  0.76045000  0.81961819  0.57597569    -0.15590
F4683       F  0.69576238  0.76322648  0.56783093    -0.15590
F4684       F  0.69659582  0.78961031  0.60103772    -0.13230
C4685       C  0.67488903  0.73697617  0.98110501     0.24780
C4686       C  0.69281897  0.74958252  0.98259029    -0.23320
C4687       C  0.69826183  0.76273079  0.96592807     0.19690
C4688       C  0.68670730  0.76238964  0.94745720     0.24730
C4689       C  0.66944848  0.74893942  0.94541007    -0.23270
C4690       C  0.66313325  0.73674946  0.96256215     0.19630
F4691       F  0.64651759  0.72364730  0.96084885    -0.13230
F4692       F  0.66933263  0.72435188  0.99723799    -0.15590
F4693       F  0.69277385  0.77474295  0.93127039    -0.15590
F4694       F  0.71551909  0.77505365  0.96717476    -0.13230
C4695       C  0.52903045  0.76225379  0.82849400     0.24780
C4696       C  0.54727503  0.75413548  0.81926668    -0.23320
C4697       C  0.54597163  0.74426588  0.79962734     0.19690
C4698       C  0.52705378  0.74354102  0.78890134     0.24730
C4699       C  0.50914520  0.75274050  0.79750121    -0.23270
C4700       C  0.51001408  0.76168590  0.81754456     0.19630
F4701       F  0.49269974  0.77049160  0.82608005    -0.13230
F4702       F  0.52986994  0.77174541  0.84748848    -0.15590
F4703       F  0.52624837  0.73423964  0.76979035    -0.15590
F4704       F  0.56306838  0.73537092  0.79071795    -0.13230
loop_ 
_geom_bond_atom_site_label_1 
_geom_bond_atom_site_label_2 
_geom_bond_distance 
_geom_bond_site_symmetry_2 
_ccdc_geom_bond_type 
N1            N2   1.322       .  A
N1            C5   1.350       .  A
N1           Cu9   2.081       .  S
N2            C3   1.337       .  A
N2           Cu8   2.051       .  S
C3            C4   1.376       .  A
C3            H6   1.082       .  S
C4            C5   1.386       .  A
C4         C4689   1.469       .  S
C5            H7   1.082       .  S
Cu8          N11   2.050       .  S
Cu9          N19   2.082       .  S
Cu10         N12   2.059       .  S
Cu10         N18   2.060       .  S
N11          N12   1.317       .  A
N11          C15   1.340       .  A
N12          C13   1.344       .  A
C13          C14   1.386       .  A
C13          H16   1.082       .  S
C14          C15   1.383       .  A
C14          C25   1.473       .  S
C15          H17   1.082       .  S
N18          N19   1.324       .  A
N18          C22   1.338       .  A
N19          C20   1.349       .  A
C20          C21   1.385       .  A
C20          H23   1.082       .  S
C21          C22   1.378       .  A
C21        C4696   1.473       .  S
C22          H24   1.082       .  S
C25          C26   1.402       .  A
C25          C30   1.402       .  A
C26          C27   1.403       .  A
C26          H31   1.083       .  S
C27          C28   1.401       .  A
C27          C47   1.469       .  S
C28          C29   1.400       .  A
C28          H32   1.084       .  S
C29          C30   1.399       .  A
C29          C71   1.468       .  S
C30          H33   1.083       .  S
N34          N35   1.323       .  A
N34          C38   1.352       .  A
N34         Cu42   2.092       .  S
N35          C36   1.336       .  A
N35         Cu41   2.049       .  S
C36          C37   1.375       .  A
C36          H39   1.082       .  S
C37          C38   1.388       .  A
C37        C4666   1.472       .  S
C38          H40   1.082       .  S
Cu41         N44   2.048       .  S
Cu42         N52   2.093       .  S
Cu43         N45   2.062       .  S
Cu43         N51   2.064       .  S
N44          N45   1.317       .  A
N44          C48   1.342       .  A
N45          C46   1.344       .  A
C46          C47   1.384       .  A
C46          H49   1.082       .  S
C47          C48   1.381       .  A
C48          H50   1.082       .  S
N51          N52   1.325       .  A
N51          C55   1.339       .  A
N52          C53   1.352       .  A
C53          C54   1.386       .  A
C53          H56   1.082       .  S
C54          C55   1.376       .  A
C54        C4676   1.471       .  S
C55          H57   1.082       .  S
N58          N59   1.323       .  A
N58          C62   1.355       .  A
N58         Cu66   2.112       .  S
N59          C60   1.337       .  A
N59         Cu65   2.056       .  S
C60          C61   1.378       .  A
C60          H63   1.082       .  S
C61          C62   1.394       .  A
C61        C4646   1.484       .  S
C62          H64   1.082       .  S
Cu65         N68   2.054       .  S
Cu66         N76   2.112       .  S
Cu67         N69   2.054       .  S
Cu67         N75   2.056       .  S
N68          N69   1.317       .  A
N68          C72   1.343       .  A
N69          C70   1.342       .  A
C70          C71   1.382       .  A
C70          H73   1.082       .  S
C71          C72   1.382       .  A
C72          H74   1.082       .  S
N75          N76   1.324       .  A
N75          C79   1.338       .  A
N76          C77   1.354       .  A
C77          C78   1.394       .  A
C77          H80   1.082       .  S
C78          C79   1.379       .  A
C78        C4656   1.486       .  S
C79          H81   1.082       .  S
C82          C83   1.413       .  A
C82          C87   1.415       .  A
C82        C4699   1.475       .  S
C83          C84   1.415       .  A
C83        C4636   1.498       .  S
C84          C85   1.415       .  A
C84        C4596   1.481       .  S
C85          C86   1.412       .  A
C85        C4626   1.485       .  S
C86          C87   1.410       .  A
C86        C4606   1.485       .  S
C87        C4616   1.490       .  S
N88          N89   1.324       .  A
N88          C92   1.353       .  A
N88         Cu96   2.101       .  S
N89          C90   1.337       .  A
N89         Cu95   2.052       .  S
C90          C91   1.376       .  A
C90          H93   1.082       .  S
C91          C92   1.390       .  A
C91        C4589   1.476       .  S
C92          H94   1.082       .  S
Cu95         N98   2.051       .  S
Cu96        N106   2.101       .  S
Cu97         N99   2.056       .  S
Cu97        N105   2.058       .  S
N98          N99   1.317       .  A
N98         C102   1.342       .  A
N99         C100   1.343       .  A
C100        C101   1.383       .  A
C100        H103   1.082       .  S
C101        C102   1.382       .  A
C101        C116   1.469       .  S
C102        H104   1.082       .  S
N105        N106   1.324       .  A
N105        C109   1.338       .  A
N106        C107   1.353       .  A
C107        C108   1.389       .  A
C107        H110   1.082       .  S
C108        C109   1.376       .  A
C108       C4579   1.475       .  S
C109        H111   1.082       .  S
C112        C113   1.400       .  A
C112        C117   1.401   1_565  A
C112        C134   1.471       .  S
C113        C114   1.401       .  A
C113        H118   1.083       .  S
C114        C115   1.401       .  A
C114        C158   1.471       .  S
C115        C116   1.401   1_565  A
C115        H119   1.083   1_565  S
C116        C117   1.401       .  A
C117        H120   1.083       .  S
N121        N122   1.324       .  A
N121        C125   1.354       .  A
N121       Cu129   2.109       .  S
N122        C123   1.338       .  A
N122       Cu128   2.053       .  S
C123        C124   1.376       .  A
C123        H126   1.082       .  S
C124        C125   1.392       .  A
C124       C4566   1.480       .  S
C125        H127   1.082       .  S
Cu128       N131   2.052       .  S
Cu129       N139   2.109       .  S
Cu130       N132   2.051       .  S
Cu130       N138   2.052       .  S
N131        N132   1.317   1_565  A
N131        C135   1.342       .  A
N132        C133   1.342       .  A
C133        C134   1.384   1_545  A
C133        H136   1.082       .  S
C134        C135   1.384       .  A
C135        H137   1.082       .  S
N138        N139   1.324   1_545  A
N138        C142   1.337       .  A
N139        C140   1.354       .  A
C140        C141   1.391       .  A
C140        H143   1.082       .  S
C141        C142   1.375   1_565  A
C141       C4556   1.478       .  S
C142        H144   1.082       .  S
N145        N146   1.324       .  A
N145        C149   1.355       .  A
N145       Cu153   2.115       .  S
N146        C147   1.338       .  A
N146       Cu152   2.049       .  S
C147        C148   1.375       .  A
C147        H150   1.082       .  S
C148        C149   1.394       .  A
C148       C4619   1.481       .  S
C149        H151   1.082       .  S
Cu152       N155   2.048       .  S
Cu153       N163   2.115       .  S
Cu154       N156   2.053       .  S
Cu154       N162   2.054       .  S
N155        N156   1.317       .  A
N155        C159   1.341       .  A
N156        C157   1.343       .  A
C157        C158   1.385       .  A
C157        H160   1.082       .  S
C158        C159   1.383       .  A
C159        H161   1.082       .  S
N162        N163   1.325       .  A
N162        C166   1.337       .  A
N163        C164   1.355       .  A
C164        C165   1.393       .  A
C164        H167   1.082       .  S
C165        C166   1.376       .  A
C165       C4546   1.481       .  S
C166        H168   1.082       .  S
N169        N170   1.325       .  A
N169        C173   1.354       .  A
N169       Cu177   2.112       .  S
N170        C171   1.339       .  A
N170       Cu176   2.061       .  S
C171        C172   1.378       .  A
C171        H174   1.082       .  S
C172        C173   1.392       .  A
C172       C4526   1.482       .  S
C173        H175   1.082       .  S
Cu176       N179   2.059       .  S
Cu177       N187   2.111       .  S
Cu178       N180   2.050       .  S
Cu178       N186   2.052       .  S
N179        N180   1.317       .  A
N179        C183   1.343       .  A
N180        C181   1.342       .  A
C181        C182   1.382       .  A
C181        H184   1.082       .  S
C182        C183   1.384       .  A
C182        C195   1.469       .  S
C183        H185   1.082       .  S
N186        N187   1.323       .  A
N186        C190   1.337       .  A
N187        C188   1.354       .  A
C188        C189   1.393       .  A
C188        H191   1.082       .  S
C189        C190   1.377       .  A
C189       C4536   1.483       .  S
C190        H192   1.082       .  S
C193        C194   1.402   1_556  A
C193        C198   1.401       .  A
C193        C215   1.472       .  S
C194        C195   1.401       .  A
C194        H199   1.083       .  S
C195        C196   1.402       .  A
C196        C197   1.401       .  A
C196        H200   1.083       .  S
C197        C198   1.401   1_554  A
C197        C239   1.471       .  S
C198        H201   1.083       .  S
N202        N203   1.324       .  A
N202        C206   1.353       .  A
N202       Cu210   2.107       .  S
N203        C204   1.337       .  A
N203       Cu209   2.053       .  S
C204        C205   1.376       .  A
C204        H207   1.082       .  S
C205        C206   1.391       .  A
C205       C4519   1.479       .  S
C206        H208   1.082       .  S
Cu209       N212   2.052       .  S
Cu210       N220   2.107       .  S
Cu211       N213   2.047       .  S
Cu211       N219   2.048       .  S
N212        N213   1.316       .  A
N212        C216   1.342       .  A
N213        C214   1.341       .  A
C214        C215   1.384       .  A
C214        H217   1.082       .  S
C215        C216   1.385       .  A
C216        H218   1.082       .  S
N219        N220   1.324       .  A
N219        C223   1.336       .  A
N220        C221   1.354       .  A
C221        C222   1.392       .  A
C221        H224   1.082       .  S
C222        C223   1.374       .  A
C222       C4506   1.477       .  S
C223        H225   1.082       .  S
N226        N227   1.323       .  A
N226        C230   1.353       .  A
N226       Cu234   2.105       .  S
N227        C228   1.338       .  A
N227       Cu233   2.049       .  S
C228        C229   1.377       .  A
C228        H231   1.082       .  S
C229        C230   1.392       .  A
C229       C4496   1.481       .  S
C230        H232   1.082       .  S
Cu233       N236   2.048       .  S
Cu234       N244   2.105       .  S
Cu235       N237   2.059       .  S
Cu235       N243   2.061       .  S
N236        N237   1.317       .  A
N236        C240   1.340       .  A
N237        C238   1.344       .  A
C238        C239   1.385       .  A
C238        H241   1.082       .  S
C239        C240   1.383       .  A
C240        H242   1.082       .  S
N243        N244   1.324       .  A
N243        C247   1.338       .  A
N244        C245   1.353       .  A
C245        C246   1.392       .  A
C245        H248   1.082       .  S
C246        C247   1.379       .  A
C246       C4486   1.484       .  S
C247        H249   1.082       .  S
C250        C251   1.411       .  A
C250        C255   1.411       .  A
C250       C4476   1.487       .  S
C251        C252   1.414   1_565  A
C251       C4559   1.484       .  S
C252        C253   1.415       .  A
C252       C4466   1.480       .  S
C253        C254   1.411   1_545  A
C253       C4436   1.492       .  S
C254        C255   1.413       .  A
C254       C4449   1.480       .  S
C255       C4456   1.482       .  S
N256        N257   1.325       .  A
N256        C260   1.352       .  A
N256       Cu264   2.103       .  S
N257        C258   1.339       .  A
N257       Cu263   2.058       .  S
C258        C259   1.375       .  A
C258        H261   1.082       .  S
C259        C260   1.388       .  A
C259       C4426   1.474       .  S
C260        H262   1.082       .  S
Cu263       N266   2.056       .  S
Cu264       N274   2.102       .  S
Cu265       N267   2.052       .  S
Cu265       N273   2.054       .  S
N266        N267   1.318       .  A
N266        C270   1.342       .  A
N267        C268   1.343       .  A
C268        C269   1.382       .  A
C268        H271   1.082       .  S
C269        C270   1.383       .  A
C269        C306   1.467       .  S
C270        H272   1.082       .  S
N273        N274   1.323       .  A
N273        C277   1.337       .  A
N274        C275   1.353       .  A
C275        C276   1.391       .  A
C275        H278   1.082       .  S
C276        C277   1.377       .  A
C276       C4416   1.479       .  S
C277        H279   1.082       .  S
N280        N281   1.322       .  A
N280        C284   1.352       .  A
N280       Cu288   2.097       .  S
N281        C282   1.337       .  A
N281       Cu287   2.049       .  S
C282        C283   1.378       .  A
C282        H285   1.082       .  S
C283        C284   1.391       .  A
C283       C4399   1.480       .  S
C284        H286   1.082       .  S
Cu287       N290   2.048       .  S
Cu288       N298   2.098       .  S
Cu289       N291   2.055       .  S
Cu289       N297   2.058       .  S
N290        N291   1.317       .  A
N290        C294   1.340       .  A
N291        C292   1.344       .  A
C292        C293   1.383       .  A
C292        H295   1.082       .  S
C293        C294   1.381       .  A
C293        C304   1.465   1_455  S
C294        H296   1.082   1_455  S
N297        N298   1.324       .  A
N297        C301   1.337       .  A
N298        C299   1.352       .  A
C299        C300   1.390       .  A
C299        H302   1.082       .  S
C300        C301   1.378       .  A
C300       C4406   1.478       .  S
C301        H303   1.082       .  S
C304        C305   1.402       .  A
C304        C309   1.399       .  A
C305        C306   1.403       .  A
C305        H310   1.084   1_655  S
C306        C307   1.400       .  A
C307        C308   1.400       .  A
C307        H311   1.084       .  S
C308        C309   1.396       .  A
C308        C326   1.465       .  S
C309        H312   1.084       .  S
N313        N314   1.321       .  A
N313        C317   1.356       .  A
N313       Cu321   2.110       .  S
N314        C315   1.331       .  A
N314       Cu320   2.034       .  S
C315        C316   1.377       .  A
C315        H318   1.081       .  S
C316        C317   1.398       .  A
C316       C4386   1.488       .  S
C317        H319   1.082       .  S
Cu320       N323   2.034       .  S
Cu321       N331   2.112       .  S
Cu322       N324   2.049       .  S
Cu322       N330   2.051       .  S
N323        N324   1.314       .  A
N323        C327   1.339       .  A
N324        C325   1.343       .  A
C325        C326   1.385       .  A
C325        H328   1.082       .  S
C326        C327   1.380       .  A
C327        H329   1.082       .  S
N330        N331   1.325       .  A
N330        C334   1.334       .  A
N331        C332   1.355       .  A
C332        C333   1.393       .  A
C332        H335   1.082       .  S
C333        C334   1.374       .  A
C333       C4376   1.479       .  S
C334        H336   1.082       .  S
C337        C338   1.412       .  A
C337        C342   1.412       .  A
C337       C4346   1.482       .  S
C338        C339   1.413       .  A
C338       C4659   1.488       .  S
C339        C340   1.416       .  A
C339       C4366   1.485       .  S
C340        C341   1.416       .  A
C340       C4326   1.486       .  S
C341        C342   1.413       .  A
C341       C4359   1.487       .  S
C342       C4336   1.486       .  S
N343        N344   1.323       .  A
N343        C347   1.354       .  A
N343       Cu351   2.108       .  S
N344        C345   1.336       .  A
N344       Cu350   2.051       .  S
C345        C346   1.378       .  A
C345        H348   1.082       .  S
C346        C347   1.394       .  A
C346       C4306   1.485       .  S
C347        H349   1.082       .  S
Cu350       N353   2.051       .  S
Cu351       N361   2.109       .  S
Cu352       N354   2.049       .  S
Cu352       N360   2.051       .  S
N353        N354   1.317       .  A
N353        C357   1.341       .  A
N354        C355   1.343       .  A
C355        C356   1.384       .  A
C355        H358   1.082       .  S
C356        C357   1.384       .  A
C356        C369   1.470       .  S
C357        H359   1.082       .  S
N360        N361   1.324       .  A
N360        C364   1.338       .  A
N361        C362   1.353       .  A
C362        C363   1.391       .  A
C362        H365   1.082       .  S
C363        C364   1.374       .  A
C363       C4316   1.476       .  S
C364        H366   1.082       .  S
C367        C368   1.399       .  A
C367        C372   1.400       .  A
C367        C413   1.469   1_554  S
C368        C369   1.400       .  A
C368        H373   1.083       .  S
C369        C370   1.402       .  A
C370        C371   1.403       .  A
C370        H374   1.083       .  S
C371        C372   1.402       .  A
C371        C389   1.472       .  S
C372        H375   1.083   1_554  S
N376        N377   1.323       .  A
N376        C380   1.353       .  A
N376       Cu384   2.103       .  S
N377        C378   1.337       .  A
N377       Cu383   2.053       .  S
C378        C379   1.377       .  A
C378        H381   1.082       .  S
C379        C380   1.392       .  A
C379       C4286   1.480       .  S
C380        H382   1.082       .  S
Cu383       N386   2.052       .  S
Cu384       N394   2.103       .  S
Cu385       N387   2.051       .  S
Cu385       N393   2.052       .  S
N386        N387   1.317       .  A
N386        C390   1.342       .  A
N387        C388   1.341       .  A
C388        C389   1.384       .  A
C388        H391   1.082       .  S
C389        C390   1.385       .  A
C390        H392   1.082       .  S
N393        N394   1.323       .  A
N393        C397   1.337       .  A
N394        C395   1.353       .  A
C395        C396   1.391       .  A
C395        H398   1.082       .  S
C396        C397   1.376       .  A
C396       C4296   1.477       .  S
C397        H399   1.082       .  S
N400        N401   1.323       .  A
N400        C404   1.351       .  A
N400       Cu408   2.093       .  S
N401        C402   1.337       .  A
N401       Cu407   2.052       .  S
C402        C403   1.376       .  A
C402        H405   1.082       .  S
C403        C404   1.388       .  A
C403       C4349   1.474       .  S
C404        H406   1.082       .  S
Cu407       N410   2.050       .  S
Cu408       N418   2.093       .  S
Cu409       N411   2.052       .  S
Cu409       N417   2.053       .  S
N410        N411   1.317       .  A
N410        C414   1.342       .  A
N411        C412   1.342       .  A
C412        C413   1.383       .  A
C412        H415   1.082   1_556  S
C413        C414   1.383       .  A
C414        H416   1.082       .  S
N417        N418   1.323       .  A
N417        C421   1.337       .  A
N418        C419   1.351       .  A
C419        C420   1.390       .  A
C419        H422   1.082       .  S
C420        C421   1.378       .  A
C420       C4279   1.479       .  S
C421        H423   1.082       .  S
N424        N425   1.323       .  A
N424        C428   1.355       .  A
N424       Cu432   2.114       .  S
N425        C426   1.337       .  A
N425       Cu431   2.047       .  S
C426        C427   1.374       .  A
C426        H429   1.082       .  S
C427        C428   1.393       .  A
C427       C4266   1.479       .  S
C428        H430   1.082       .  S
Cu431       N434   2.046       .  S
Cu432       N442   2.115       .  S
Cu433       N435   2.058       .  S
Cu433       N441   2.061       .  S
N434        N435   1.317       .  A
N434        C438   1.341       .  A
N435        C436   1.344       .  A
C436        C437   1.386       .  A
C436        H439   1.082       .  S
C437        C438   1.382       .  A
C437        C450   1.471       .  S
C438        H440   1.082       .  S
N441        N442   1.325       .  A
N441        C445   1.339       .  A
N442        C443   1.354       .  A
C443        C444   1.392       .  A
C443        H446   1.082       .  S
C444        C445   1.378       .  A
C444       C4256   1.484       .  S
C445        H447   1.082       .  S
C448        C449   1.403       .  A
C448        C453   1.402       .  A
C448        C470   1.475       .  S
C449        C450   1.402       .  A
C449        H454   1.082       .  S
C450        C451   1.400       .  A
C451        C452   1.400       .  A
C451        H455   1.084       .  S
C452        C453   1.399       .  A
C452        C494   1.465       .  S
C453        H456   1.083       .  S
N457        N458   1.324       .  A
N457        C461   1.353       .  A
N457       Cu465   2.103       .  S
N458        C459   1.337       .  A
N458       Cu464   2.053       .  S
C459        C460   1.376       .  A
C459        H462   1.082       .  S
C460        C461   1.391       .  A
C460       C4246   1.478       .  S
C461        H463   1.082       .  S
Cu464       N467   2.052       .  S
Cu465       N475   2.103       .  S
Cu466       N468   2.050       .  S
Cu466       N474   2.050       .  S
N467        N468   1.317       .  A
N467        C471   1.342       .  A
N468        C469   1.341       .  A
C469        C470   1.385       .  A
C469        H472   1.081       .  S
C470        C471   1.386       .  A
C471        H473   1.081       .  S
N474        N475   1.323       .  A
N474        C478   1.337       .  A
N475        C476   1.353       .  A
C476        C477   1.392       .  A
C476        H479   1.082       .  S
C477        C478   1.376       .  A
C477       C4236   1.479       .  S
C478        H480   1.082       .  S
N481        N482   1.323       .  A
N481        C485   1.352       .  A
N481       Cu489   2.102       .  S
N482        C483   1.338       .  A
N482       Cu488   2.047       .  S
C483        C484   1.375       .  A
C483        H486   1.082       .  S
C484        C485   1.390       .  A
C484       C4226   1.474       .  S
C485        H487   1.082       .  S
Cu488       N491   2.046       .  S
Cu489       N499   2.103       .  S
Cu490       N492   2.057       .  S
Cu490       N498   2.060       .  S
N491        N492   1.318       .  A
N491        C495   1.341       .  A
N492        C493   1.344       .  A
C493        C494   1.383       .  A
C493        H496   1.082       .  S
C494        C495   1.380       .  A
C495        H497   1.082       .  S
N498        N499   1.325       .  A
N498        C502   1.339       .  A
N499        C500   1.352       .  A
C500        C501   1.388       .  A
C500        H503   1.082       .  S
C501        C502   1.376       .  A
C501       C4216   1.474       .  S
C502        H504   1.082       .  S
C505        C506   1.415       .  A
C505        C510   1.414       .  A
C505       C4206   1.490       .  S
C506        C507   1.417       .  A
C506       C4196   1.487       .  S
C507        C508   1.414       .  A
C507       C4166   1.487       .  S
C508        C509   1.412       .  A
C508       C4156   1.486       .  S
C509        C510   1.413       .  A
C509       C4186   1.489       .  S
C510       C4176   1.481       .  S
N511        N512   1.324       .  A
N511        C515   1.353       .  A
N511       Cu519   2.104       .  S
N512        C513   1.336       .  A
N512       Cu518   2.056       .  S
C513        C514   1.377       .  A
C513        H516   1.082       .  S
C514        C515   1.391       .  A
C514       C4149   1.479       .  S
C515        H517   1.082       .  S
Cu518       N521   2.054       .  S
Cu519       N529   2.103       .  S
Cu520       N522   2.047       .  S
Cu520       N528   2.048       .  S
N521        N522   1.316       .  A
N521        C525   1.345       .  A
N522        C523   1.340       .  A
C523        C524   1.382       .  A
C523        H526   1.082       .  S
C524        C525   1.383       .  A
C524        C537   1.467       .  S
C525        H527   1.082       .  S
N528        N529   1.323       .  A
N528        C532   1.336       .  A
N529        C530   1.353       .  A
C530        C531   1.392       .  A
C530        H533   1.082       .  S
C531        C532   1.376       .  A
C531       C4459   1.479       .  S
C532        H534   1.082       .  S
C535        C536   1.404       .  A
C535        C540   1.404       .  A
C535        C581   1.472       .  S
C536        C537   1.401       .  A
C536        H541   1.084       .  S
C537        C538   1.398       .  A
C538        C539   1.399       .  A
C538        H542   1.083       .  S
C539        C540   1.402       .  A
C539        C557   1.472       .  S
C540        H543   1.083       .  S
N544        N545   1.324       .  A
N544        C548   1.355       .  A
N544       Cu552   2.113       .  S
N545        C546   1.338       .  A
N545       Cu551   2.054       .  S
C546        C547   1.378       .  A
C546        H549   1.082       .  S
C547        C548   1.394       .  A
C547       C4199   1.484       .  S
C548        H550   1.082       .  S
Cu551       N554   2.054       .  S
Cu552       N562   2.113       .  S
Cu553       N555   2.049       .  S
Cu553       N561   2.050       .  S
N554        N555   1.317       .  A
N554        C558   1.341       .  A
N555        C556   1.343       .  A
C556        C557   1.383       .  A
C556        H559   1.082       .  S
C557        C558   1.385       .  A
C558        H560   1.082       .  S
N561        N562   1.324       .  A
N561        C565   1.337       .  A
N562        C563   1.355       .  A
C563        C564   1.393       .  A
C563        H566   1.082       .  S
C564        C565   1.375       .  A
C564       C4629   1.480       .  S
C565        H567   1.082       .  S
N568        N569   1.323       .  A
N568        C572   1.354       .  A
N568       Cu576   2.106       .  S
N569        C570   1.338       .  A
N569       Cu575   2.059       .  S
C570        C571   1.379       .  A
C570        H573   1.082       .  S
C571        C572   1.393       .  A
C571       C4136   1.485       .  S
C572        H574   1.082       .  S
Cu575       N578   2.057       .  S
Cu576       N586   2.107       .  S
Cu577       N579   2.060       .  S
Cu577       N585   2.062       .  S
N578        N579   1.318       .  A
N578        C582   1.343       .  A
N579        C580   1.344       .  A
C580        C581   1.384       .  A
C580        H583   1.082       .  S
C581        C582   1.384       .  A
C582        H584   1.082       .  S
N585        N586   1.323       .  A
N585        C589   1.339       .  A
N586        C587   1.353       .  A
C587        C588   1.394       .  A
C587        H590   1.081       .  S
C588        C589   1.382       .  A
C588       C4129   1.490       .  S
C589        H591   1.081       .  S
C592        C593   1.427       .  A
C592        C597   1.452       .  A
C592       C4679   1.486       .  S
C593        C594   1.401       .  A
C593       C4106   1.496       .  S
C594        C595   1.395       .  A
C594       C4076   1.484       .  S
C595        C596   1.417       .  A
C595       C4116   1.492       .  S
C596        C597   1.446       .  A
C596       C4086   1.474       .  S
C597       C4096   1.561       .  S
N598        N599   1.321       .  A
N598        C602   1.357       .  A
N598       Cu606   2.115       .  S
N599        C600   1.332       .  A
N599       Cu605   2.033       .  S
C600        C601   1.375       .  A
C600        H603   1.082       .  S
C601        C602   1.398       .  A
C601       C4056   1.487       .  S
C602        H604   1.082       .  S
Cu605       N608   2.034       .  S
Cu606       N616   2.117       .  S
Cu607       N609   2.048       .  S
Cu607       N615   2.051       .  S
N608        N609   1.314       .  A
N608        C612   1.338       .  A
N609        C610   1.344       .  A
C610        C611   1.385       .  A
C610        H613   1.082       .  S
C611        C612   1.379       .  A
C611        C626   1.464       .  S
C612        H614   1.082       .  S
N615        N616   1.325       .  A
N615        C619   1.334       .  A
N616        C617   1.355       .  A
C617        C618   1.395       .  A
C617        H620   1.082       .  S
C618        C619   1.375       .  A
C618       C4066   1.483       .  S
C619        H621   1.081       .  S
C622        C623   1.402       .  A
C622        C627   1.399       .  A
C622        C644   1.469       .  S
C623        C624   1.402       .  A
C623        H628   1.083       .  S
C624        C625   1.401       .  A
C624        C668   1.469       .  S
C625        C626   1.398       .  A
C625        H629   1.084       .  S
C626        C627   1.400       .  A
C627        H630   1.084       .  S
N631        N632   1.323       .  A
N631        C635   1.357       .  A
N631       Cu639   2.121       .  S
N632        C633   1.335       .  A
N632       Cu638   2.043       .  S
C633        C634   1.376       .  A
C633        H636   1.082       .  S
C634        C635   1.397       .  A
C634       C4036   1.486       .  S
C635        H637   1.082       .  S
Cu638       N641   2.043       .  S
Cu639       N649   2.122       .  S
Cu640       N642   2.057       .  S
Cu640       N648   2.060       .  S
N641        N642   1.316       .  A
N641        C645   1.341       .  A
N642        C643   1.343       .  A
C643        C644   1.386       .  A
C643        H646   1.082       .  S
C644        C645   1.381       .  A
C645        H647   1.082       .  S
N648        N649   1.326       .  A
N648        C652   1.339       .  A
N649        C650   1.356       .  A
C650        C651   1.393       .  A
C650        H653   1.082       .  S
C651        C652   1.375       .  A
C651       C4046   1.482       .  S
C652        H654   1.082       .  S
N655        N656   1.323       .  A
N655        C659   1.351       .  A
N655       Cu663   2.095       .  S
N656        C657   1.338       .  A
N656       Cu662   2.052       .  S
C657        C658   1.378       .  A
C657        H660   1.082       .  S
C658        C659   1.390       .  A
C658       C4016   1.479       .  S
C659        H661   1.082       .  S
Cu662       N665   2.051       .  S
Cu663       N673   2.095       .  S
Cu664       N666   2.051       .  S
Cu664       N672   2.053       .  S
N665        N666   1.318       .  A
N665        C669   1.341       .  A
N666        C667   1.342       .  A
C667        C668   1.383       .  A
C667        H670   1.082       .  S
C668        C669   1.383       .  A
C669        H671   1.082       .  S
N672        N673   1.323       .  A
N672        C676   1.338       .  A
N673        C674   1.351       .  A
C674        C675   1.390       .  A
C674        H677   1.082       .  S
C675        C676   1.378       .  A
C675       C4026   1.478       .  S
C676        H678   1.082       .  S
C679        C680   1.412       .  A
C679        C684   1.415       .  A
C679       C4259   1.485       .  S
C680        C681   1.411       .  A
C680       C4539   1.484       .  S
C681        C682   1.410       .  A
C681       C3996   1.482       .  S
C682        C683   1.410       .  A
C682       C4029   1.484       .  S
C683        C684   1.415       .  A
C683       C4009   1.486       .  S
C684       C3986   1.483       .  S
C685        C686   1.410       .  A
C685        C690   1.407   1_556  A
C685       C3959   1.480       .  S
C686        C687   1.413   1_556  A
C686       C4509   1.482       .  S
C687        C688   1.415       .  A
C687       C4289   1.483       .  S
C688        C689   1.413       .  A
C688       C4049   1.492       .  S
C689        C690   1.411       .  A
C689       C3976   1.475       .  S
C690       C3966   1.487       .  S
N691        N692   1.322       .  A
N691        C695   1.354       .  A
N691       Cu699   2.107       .  S
N692        C693   1.335       .  A
N692       Cu698   2.043       .  S
C693        C694   1.377       .  A
C693        H696   1.082       .  S
C694        C695   1.394       .  A
C694       C3946   1.483       .  S
C695        H697   1.082       .  S
Cu698       N701   2.043       .  S
Cu699       N709   2.109       .  S
Cu700       N702   2.058       .  S
Cu700       N708   2.060       .  S
N701        N702   1.317       .  A
N701        C705   1.339       .  A
N702        C703   1.345       .  A
C703        C704   1.386       .  A
C703        H706   1.082       .  S
C704        C705   1.382       .  A
C704        C717   1.471   1_455  S
C705        H707   1.082   1_455  S
N708        N709   1.325       .  A
N708        C712   1.338       .  A
N709        C710   1.354       .  A
C710        C711   1.392       .  A
C710        H713   1.082       .  S
C711        C712   1.378       .  A
C711       C4159   1.483       .  S
C712        H714   1.082       .  S
C715        C716   1.399       .  A
C715        C720   1.401       .  A
C715        C737   1.466       .  S
C716        C717   1.400       .  A
C716        H721   1.083       .  S
C717        C718   1.400       .  A
C718        C719   1.403       .  A
C718        H722   1.083       .  S
C719        C720   1.402       .  A
C719        C761   1.468       .  S
C720        H723   1.084       .  S
N724        N725   1.323       .  A
N724        C728   1.354       .  A
N724       Cu732   2.101       .  S
N725        C726   1.336       .  A
N725       Cu731   2.056       .  S
C726        C727   1.378       .  A
C726        H729   1.082       .  S
C727        C728   1.391       .  A
C727       C4099   1.479       .  S
C728        H730   1.082       .  S
Cu731       N734   2.055       .  S
Cu732       N742   2.101       .  S
Cu733       N735   2.045       .  S
Cu733       N741   2.046       .  S
N734        N735   1.317       .  A
N734        C738   1.344       .  A
N735        C736   1.340       .  A
C736        C737   1.381       .  A
C736        H739   1.082       .  S
C737        C738   1.383       .  A
C738        H740   1.082       .  S
N741        N742   1.323       .  A
N741        C745   1.337       .  A
N742        C743   1.351       .  A
C743        C744   1.392       .  A
C743        H746   1.082       .  S
C744        C745   1.377       .  A
C744       C3936   1.480       .  S
C745        H747   1.081       .  S
N748        N749   1.323       .  A
N748        C752   1.358       .  A
N748       Cu756   2.125       .  S
N749        C750   1.336       .  A
N749       Cu755   2.043       .  S
C750        C751   1.374       .  A
C750        H753   1.082       .  S
C751        C752   1.396       .  A
C751       C3916   1.482       .  S
C752        H754   1.082       .  S
Cu755       N758   2.043       .  S
Cu756       N766   2.127       .  S
Cu757       N759   2.059       .  S
Cu757       N765   2.062       .  S
N758        N759   1.316       .  A
N758        C762   1.340       .  A
N759        C760   1.345       .  A
C760        C761   1.385       .  A
C760        H763   1.082       .  S
C761        C762   1.381       .  A
C762        H764   1.082       .  S
N765        N766   1.326       .  A
N765        C769   1.339       .  A
N766        C767   1.357       .  A
C767        C768   1.394       .  A
C767        H770   1.082       .  S
C768        C769   1.376       .  A
C768       C3926   1.484       .  S
C769        H771   1.082       .  S
C772        C773   1.415       .  A
C772        C777   1.413   1_565  A
C772       C3906   1.488       .  S
C773        C774   1.413       .  A
C773       C3949   1.483   1_655  S
C774        C775   1.407   1_565  A
C774       C3866   1.478   1_665  S
C775        C776   1.408       .  A
C775       C3896   1.487       .  S
C776        C777   1.411       .  A
C776       C3886   1.477       .  S
C777       C3876   1.483   1_545  S
N778        N779   1.323       .  A
N778        C782   1.353       .  A
N778       Cu786   2.102       .  S
N779        C780   1.337       .  A
N779       Cu785   2.053       .  S
C780        C781   1.378       .  A
C780        H783   1.082       .  S
C781        C782   1.392       .  A
C781       C3879   1.481       .  S
C782        H784   1.082   1_545  S
Cu785       N788   2.052       .  S
Cu786       N796   2.103       .  S
Cu787       N789   2.055       .  S
Cu787       N795   2.057       .  S
N788        N789   1.317   1_545  A
N788        C792   1.342       .  A
N789        C790   1.343       .  A
C790        C791   1.385       .  A
C790        H793   1.082       .  S
C791        C792   1.384   1_565  A
C791        C804   1.472       .  S
C792        H794   1.082       .  S
N795        N796   1.324   1_565  A
N795        C799   1.338       .  A
N796        C797   1.352       .  A
C797        C798   1.391       .  A
C797        H800   1.082       .  S
C798        C799   1.378   1_545  A
C798       C3859   1.481       .  S
C799        H801   1.082       .  S
C802        C803   1.403       .  A
C802        C807   1.402       .  A
C802        C848   1.472       .  S
C803        C804   1.401       .  A
C803        H808   1.083       .  S
C804        C805   1.401   1_565  A
C805        C806   1.400       .  A
C805        H809   1.083       .  S
C806        C807   1.401   1_545  A
C806        C824   1.469       .  S
C807        H810   1.083       .  S
N811        N812   1.325       .  A
N811        C815   1.357       .  A
N811       Cu819   2.130       .  S
N812        C813   1.339       .  A
N812       Cu818   2.054       .  S
C813        C814   1.374       .  A
C813        H816   1.082       .  S
C814        C815   1.394       .  A
C814       C3839   1.481       .  S
C815        H817   1.082       .  S
Cu818       N821   2.052       .  S
Cu819       N829   2.129       .  S
Cu820       N822   2.050       .  S
Cu820       N828   2.051       .  S
N821        N822   1.317       .  A
N821        C825   1.343       .  A
N822        C823   1.341       .  A
C823        C824   1.383       .  A
C823        H826   1.082       .  S
C824        C825   1.384       .  A
C825        H827   1.082       .  S
N828        N829   1.324       .  A
N828        C832   1.338       .  A
N829        C830   1.358       .  A
C830        C831   1.396       .  A
C830        H833   1.082       .  S
C831        C832   1.375       .  A
C831       C3846   1.485       .  S
C832        H834   1.082       .  S
N835        N836   1.323       .  A
N835        C839   1.355       .  A
N835       Cu843   2.119       .  S
N836        C837   1.337       .  A
N836       Cu842   2.049       .  S
C837        C838   1.378       .  A
C837        H840   1.082       .  S
C838        C839   1.397       .  A
C838       C4109   1.488       .  S
C839        H841   1.082       .  S
Cu842       N845   2.048       .  S
Cu843       N853   2.120       .  S
Cu844       N846   2.057       .  S
Cu844       N852   2.059       .  S
N845        N846   1.317       .  A
N845        C849   1.341       .  A
N846        C847   1.343       .  A
C847        C848   1.385       .  A
C847        H850   1.082       .  S
C848        C849   1.383       .  A
C849        H851   1.082       .  S
N852        N853   1.324       .  A
N852        C856   1.339       .  A
N853        C854   1.356       .  A
C854        C855   1.396       .  A
C854        H857   1.082       .  S
C855        C856   1.379       .  A
C855       C3826   1.489       .  S
C856        H858   1.082       .  S
C859        C860   1.421   1_545  A
C859        C864   1.455       .  A
C859       C3816   1.486       .  S
C860        C861   1.399       .  A
C860       C4569   1.492       .  S
C861        C862   1.398       .  A
C861       C3796   1.488       .  S
C862        C863   1.425       .  A
C862       C3829   1.499       .  S
C863        C864   1.456   1_565  A
C863       C3786   1.482       .  S
C864       C3806   1.569       .  S
C865        C866   1.398       .  A
C865        C870   1.399   1_545  A
C865       C4576   1.489   1_554  S
C866        C867   1.422       .  A
C866       C4499   1.495       .  S
C867        C868   1.452   1_545  A
C867       C3769   1.476       .  S
C868        C869   1.455       .  A
C868       C3759   1.576       .  S
C869        C870   1.428       .  A
C869       C3749   1.477       .  S
C870       C3776   1.500   1_554  S
C871        C872   1.407       .  A
C871        C876   1.412       .  A
C871       C4276   1.482   1_554  S
C872        C873   1.407       .  A
C872       C4686   1.478   1_554  S
C873        C874   1.407       .  A
C873       C3716   1.477       .  S
C874        C875   1.410       .  A
C874       C3729   1.480       .  S
C875        C876   1.411       .  A
C875       C3709   1.481       .  S
C876       C3736   1.481       .  S
N877        N878   1.324       .  A
N877        C881   1.353       .  A
N877       Cu885   2.105       .  S
N878        C879   1.338       .  A
N878       Cu884   2.055   1_554  S
C879        C880   1.376       .  A
C879        H882   1.082       .  S
C880        C881   1.391       .  A
C880       C3969   1.479       .  S
C881        H883   1.082       .  S
Cu884       N887   2.054   1_556  S
Cu885       N895   2.104       .  S
Cu886       N888   2.052       .  S
Cu886       N894   2.053       .  S
N887        N888   1.317       .  A
N887        C891   1.342       .  A
N888        C889   1.342       .  A
C889        C890   1.385       .  A
C889        H892   1.082       .  S
C890        C891   1.385       .  A
C890        C901   1.475       .  S
C891        H893   1.082   1_554  S
N894        N895   1.323       .  A
N894        C898   1.336       .  A
N895        C896   1.354       .  A
C896        C897   1.392       .  A
C896        H899   1.082       .  S
C897        C898   1.378       .  A
C897       C3699   1.482       .  S
C898        H900   1.082       .  S
C901        C902   1.403   1_554  A
C901        C906   1.402       .  A
C902        C903   1.403       .  A
C902        H907   1.082       .  S
C903        C904   1.402   1_546  A
C903        C947   1.475       .  S
C904        C905   1.401       .  A
C904        H908   1.083       .  S
C905        C906   1.399   1_565  A
C905        C923   1.469       .  S
C906        H909   1.083       .  S
N910        N911   1.323       .  A
N910        C914   1.350       .  A
N910       Cu918   2.087       .  S
N911        C912   1.337       .  A
N911       Cu917   2.052       .  S
C912        C913   1.376       .  A
C912        H915   1.082       .  S
C913        C914   1.387       .  A
C913       C3726   1.471       .  S
C914        H916   1.082       .  S
Cu917       N920   2.050       .  S
Cu918       N928   2.088       .  S
Cu919       N921   2.058       .  S
Cu919       N927   2.060       .  S
N920        N921   1.318       .  A
N920        C924   1.342       .  A
N921        C922   1.343       .  A
C922        C923   1.384       .  A
C922        H925   1.082       .  S
C923        C924   1.382       .  A
C924        H926   1.082       .  S
N927        N928   1.323       .  A
N927        C931   1.338       .  A
N928        C929   1.350       .  A
C929        C930   1.387       .  A
C929        H932   1.082       .  S
C930        C931   1.379       .  A
C930       C3686   1.477       .  S
C931        H933   1.082       .  S
N934        N935   1.323       .  A
N934        C938   1.356       .  A
N934       Cu942   2.119       .  S
N935        C936   1.337       .  A
N935       Cu941   2.052       .  S
C936        C937   1.377       .  A
C936        H939   1.082       .  S
C937        C938   1.396       .  A
C937       C3676   1.487       .  S
C938        H940   1.082   1_545  S
Cu941       N944   2.051       .  S
Cu942       N952   2.120   1_545  S
Cu943       N945   2.057       .  S
Cu943       N951   2.058       .  S
N944        N945   1.317   1_545  A
N944        C948   1.342       .  A
N945        C946   1.343       .  A
C946        C947   1.386   1_565  A
C946        H949   1.082       .  S
C947        C948   1.385       .  A
C948        H950   1.082       .  S
N951        N952   1.323       .  A
N951        C955   1.338       .  A
N952        C953   1.356   1_565  A
C953        C954   1.397   1_545  A
C953        H956   1.082       .  S
C954        C955   1.380       .  A
C954       C3779   1.492       .  S
C955        H957   1.081       .  S
C958        C959   1.411   1_545  A
C958        C963   1.409       .  A
C958       C3856   1.487       .  S
C959        C960   1.414       .  A
C959       C4669   1.480       .  S
C960        C961   1.413   1_565  A
C960       C4549   1.485       .  S
C961        C962   1.416       .  A
C961       C3679   1.491       .  S
C962        C963   1.414       .  A
C962       C3659   1.481       .  S
C963       C3666   1.485       .  S
N964        N965   1.322   1_565  A
N964        C968   1.352       .  A
N964       Cu972   2.096       .  S
N965        C966   1.337       .  A
N965       Cu971   2.054       .  S
C966        C967   1.379   1_545  A
C966        H969   1.081       .  S
C967        C968   1.392       .  A
C967       C3649   1.483       .  S
C968        H970   1.082       .  S
Cu971       N974   2.054       .  S
Cu972       N982   2.097       .  S
Cu973       N975   2.058       .  S
Cu973       N981   2.059       .  S
N974        N975   1.317   1_545  A
N974        C978   1.342       .  A
N975        C976   1.343       .  A
C976        C977   1.385       .  A
C976        H979   1.082       .  S
C977        C978   1.384   1_565  A
C977        C990   1.474   1_455  S
C978        H980   1.082   1_455  S
N981        N982   1.324       .  A
N981        C985   1.338       .  A
N982        C983   1.352       .  A
C983        C984   1.389       .  A
C983        H986   1.082       .  S
C984        C985   1.378       .  A
C984       C4446   1.478       .  S
C985        H987   1.082       .  S
C988        C989   1.401       .  A
C988        C993   1.400       .  A
C988       C1034   1.470       .  S
C989        C990   1.401       .  A
C989        H994   1.083   1_655  S
C990        C991   1.403   1_565  A
C991        C992   1.403       .  A
C991        H995   1.083       .  S
C992        C993   1.402   1_545  A
C992       C1010   1.474       .  S
C993        H996   1.083   1_565  S
N997        N998   1.323       .  A
N997       C1001   1.353       .  A
N997      Cu1005   2.103       .  S
N998        C999   1.338       .  A
N998      Cu1004   2.057       .  S
C999       C1000   1.378       .  A
C999       H1002   1.082       .  S
C1000      C1001   1.391       .  A
C1000      C3669   1.481       .  S
C1001      H1003   1.082       .  S
Cu1004     N1007   2.056       .  S
Cu1005     N1015   2.103       .  S
Cu1006     N1008   2.058       .  S
Cu1006     N1014   2.059       .  S
N1007      N1008   1.318       .  A
N1007      C1011   1.342       .  A
N1008      C1009   1.343       .  A
C1009      C1010   1.385       .  A
C1009      H1012   1.082       .  S
C1010      C1011   1.384       .  A
C1011      H1013   1.082       .  S
N1014      N1015   1.324       .  A
N1014      C1018   1.338       .  A
N1015      C1016   1.353       .  A
C1016      C1017   1.391       .  A
C1016      H1019   1.082       .  S
C1017      C1018   1.379       .  A
C1017      C3636   1.482       .  S
C1018      H1020   1.082       .  S
N1021      N1022   1.324       .  A
N1021      C1025   1.355       .  A
N1021     Cu1029   2.110       .  S
N1022      C1023   1.337       .  A
N1022     Cu1028   2.049       .  S
C1023      C1024   1.373       .  A
C1023      H1026   1.082       .  S
C1024      C1025   1.391       .  A
C1024      C3626   1.474       .  S
C1025      H1027   1.082       .  S
Cu1028     N1031   2.048       .  S
Cu1029     N1039   2.111       .  S
Cu1030     N1032   2.056       .  S
Cu1030     N1038   2.058       .  S
N1031      N1032   1.317       .  A
N1031      C1035   1.342       .  A
N1032      C1033   1.343       .  A
C1033      C1034   1.384       .  A
C1033      H1036   1.082       .  S
C1034      C1035   1.382       .  A
C1035      H1037   1.082       .  S
N1038      N1039   1.325       .  A
N1038      C1042   1.338       .  A
N1039      C1040   1.354       .  A
C1040      C1041   1.390       .  A
C1040      H1043   1.082       .  S
C1041      C1042   1.375       .  A
C1041      C3909   1.477       .  S
C1042      H1044   1.082       .  S
C1045      C1046   1.438       .  A
C1045      C1050   1.435       .  A
C1045      C3939   1.485       .  S
C1046      C1047   1.440       .  A
C1046      C4649   1.574       .  S
C1047      C1048   1.438       .  A
C1047      C3606   1.489       .  S
C1048      C1049   1.441       .  A
C1048      C3616   1.493   1_655  S
C1049      C1050   1.439       .  A
C1049      C4146   1.568   1_655  S
C1050      C3629   1.496       .  S
N1051      N1052   1.323       .  A
N1051      C1055   1.350       .  A
N1051     Cu1059   2.089       .  S
N1052      C1053   1.339       .  A
N1052     Cu1058   2.059       .  S
C1053      C1054   1.378       .  A
C1053      H1056   1.082       .  S
C1054      C1055   1.387       .  A
C1054      C3596   1.475       .  S
C1055      H1057   1.082       .  S
Cu1058     N1061   2.057       .  S
Cu1059     N1069   2.088       .  S
Cu1060     N1062   2.053       .  S
Cu1060     N1068   2.054       .  S
N1061      N1062   1.318       .  A
N1061      C1065   1.343       .  A
N1062      C1063   1.342       .  A
C1063      C1064   1.382       .  A
C1063      H1066   1.082       .  S
C1064      C1065   1.384       .  A
C1064      C1079   1.470       .  S
C1065      H1067   1.082       .  S
N1068      N1069   1.322       .  A
N1068      C1072   1.337       .  A
N1069      C1070   1.350       .  A
C1070      C1071   1.389       .  A
C1070      H1073   1.082       .  S
C1071      C1072   1.379       .  A
C1071      C3586   1.479       .  S
C1072      H1074   1.082       .  S
C1075      C1076   1.398   1_554  A
C1075      C1080   1.401       .  A
C1075      C1121   1.469       .  S
C1076      C1077   1.399       .  A
C1076      H1081   1.083       .  S
C1077      C1078   1.401   1_556  A
C1077      C1097   1.470   1_655  S
C1078      C1079   1.403       .  A
C1078      H1082   1.083   1_655  S
C1079      C1080   1.402       .  A
C1080      H1083   1.083       .  S
N1084      N1085   1.323       .  A
N1084      C1088   1.356       .  A
N1084     Cu1092   2.123       .  S
N1085      C1086   1.337       .  A
N1085     Cu1091   2.044       .  S
C1086      C1087   1.375       .  A
C1086      H1089   1.082       .  S
C1087      C1088   1.397       .  A
C1087      C3619   1.486       .  S
C1088      H1090   1.082       .  S
Cu1091     N1094   2.045       .  S
Cu1092     N1102   2.124       .  S
Cu1093     N1095   2.051       .  S
Cu1093     N1101   2.054       .  S
N1094      N1095   1.316       .  A
N1094      C1098   1.339       .  A
N1095      C1096   1.343       .  A
C1096      C1097   1.385       .  A
C1096      H1099   1.082   1_556  S
C1097      C1098   1.383       .  A
C1098      H1100   1.082   1_455  S
N1101      N1102   1.325       .  A
N1101      C1105   1.339       .  A
N1102      C1103   1.356       .  A
C1103      C1104   1.393       .  A
C1103      H1106   1.082       .  S
C1104      C1105   1.374       .  A
C1104      C3579   1.480       .  S
C1105      H1107   1.082       .  S
N1108      N1109   1.324       .  A
N1108      C1112   1.352       .  A
N1108     Cu1116   2.098       .  S
N1109      C1110   1.338       .  A
N1109     Cu1115   2.050       .  S
C1110      C1111   1.374       .  A
C1110      H1113   1.082       .  S
C1111      C1112   1.389       .  A
C1111      C3566   1.472       .  S
C1112      H1114   1.082       .  S
Cu1115     N1118   2.049       .  S
Cu1116     N1126   2.098       .  S
Cu1117     N1119   2.046       .  S
Cu1117     N1125   2.048       .  S
N1118      N1119   1.316       .  A
N1118      C1122   1.340       .  A
N1119      C1120   1.343       .  A
C1120      C1121   1.383       .  A
C1120      H1123   1.082       .  S
C1121      C1122   1.383       .  A
C1122      H1124   1.082       .  S
N1125      N1126   1.324       .  A
N1125      C1129   1.336       .  A
N1126      C1127   1.352       .  A
C1127      C1128   1.388       .  A
C1127      H1130   1.082       .  S
C1128      C1129   1.373       .  A
C1128      C3739   1.469       .  S
C1129      H1131   1.082       .  S
C1132      C1133   1.412       .  A
C1132      C1137   1.412   1_545  A
C1132      C3696   1.484       .  S
C1133      C1134   1.413       .  A
C1133      C3549   1.482   1_554  S
C1134      C1135   1.408   1_545  A
C1134      C3646   1.483   1_644  S
C1135      C1136   1.410       .  A
C1135      C3536   1.483   1_655  S
C1136      C1137   1.410       .  A
C1136      C3589   1.479       .  S
C1137      C3559   1.485       .  S
C1138      C1139   1.414       .  A
C1138      C1143   1.413       .  A
C1138      C3516   1.484   1_654  S
C1139      C1140   1.418       .  A
C1139      C3526   1.492   1_655  S
C1140      C1141   1.416       .  A
C1140      C4429   1.486       .  S
C1141      C1142   1.412       .  A
C1141      C4309   1.488       .  S
C1142      C1143   1.410       .  A
C1142      C3569   1.486       .  S
C1143      C3509   1.484   1_554  S
N1144      N1145   1.324       .  A
N1144      C1148   1.352       .  A
N1144     Cu1152   2.098       .  S
N1145      C1146   1.337       .  A
N1145     Cu1151   2.053       .  S
C1146      C1147   1.374       .  A
C1146      H1149   1.082       .  S
C1147      C1148   1.388       .  A
C1147      C3609   1.471       .  S
C1148      H1150   1.082       .  S
Cu1151     N1154   2.051       .  S
Cu1152     N1162   2.098       .  S
Cu1153     N1155   2.053       .  S
Cu1153     N1161   2.055       .  S
N1154      N1155   1.317       .  A
N1154      C1158   1.342       .  A
N1155      C1156   1.342       .  A
C1156      C1157   1.383       .  A
C1156      H1159   1.082       .  S
C1157      C1158   1.383       .  A
C1157      C1170   1.469       .  S
C1158      H1160   1.082       .  S
N1161      N1162   1.323       .  A
N1161      C1165   1.337       .  A
N1162      C1163   1.352       .  A
C1163      C1164   1.391       .  A
C1163      H1166   1.082       .  S
C1164      C1165   1.378       .  A
C1164      C3506   1.480       .  S
C1165      H1167   1.082       .  S
C1168      C1169   1.400       .  A
C1168      C1173   1.401       .  A
C1168      C1190   1.469   1_655  S
C1169      C1170   1.400       .  A
C1169      H1174   1.083   1_655  S
C1170      C1171   1.401       .  A
C1171      C1172   1.402       .  A
C1171      H1175   1.083       .  S
C1172      C1173   1.402       .  A
C1172      C1214   1.471       .  S
C1173      H1176   1.083       .  S
N1177      N1178   1.323       .  A
N1177      C1181   1.353       .  A
N1177     Cu1185   2.102       .  S
N1178      C1179   1.336       .  A
N1178     Cu1184   2.051       .  S
C1179      C1180   1.377       .  A
C1179      H1182   1.082       .  S
C1180      C1181   1.392       .  A
C1180      C3499   1.481       .  S
C1181      H1183   1.082       .  S
Cu1184     N1187   2.050       .  S
Cu1185     N1195   2.102       .  S
Cu1186     N1188   2.049       .  S
Cu1186     N1194   2.051       .  S
N1187      N1188   1.316       .  A
N1187      C1191   1.341       .  A
N1188      C1189   1.343       .  A
C1189      C1190   1.383       .  A
C1189      H1192   1.082   1_455  S
C1190      C1191   1.383       .  A
C1191      H1193   1.082       .  S
N1194      N1195   1.324       .  A
N1194      C1198   1.336       .  A
N1195      C1196   1.353       .  A
C1196      C1197   1.390       .  A
C1196      H1199   1.082       .  S
C1197      C1198   1.375       .  A
C1197      C3486   1.476       .  S
C1198      H1200   1.082       .  S
N1201      N1202   1.324       .  A
N1201      C1205   1.354       .  A
N1201     Cu1209   2.110       .  S
N1202      C1203   1.338       .  A
N1202     Cu1208   2.054       .  S
C1203      C1204   1.376       .  A
C1203      H1206   1.082       .  S
C1204      C1205   1.392       .  A
C1204      C3476   1.479       .  S
C1205      H1207   1.082       .  S
Cu1208     N1211   2.052       .  S
Cu1209     N1219   2.110       .  S
Cu1210     N1212   2.055       .  S
Cu1210     N1218   2.056       .  S
N1211      N1212   1.317       .  A
N1211      C1215   1.343       .  A
N1212      C1213   1.342       .  A
C1213      C1214   1.384       .  A
C1213      H1216   1.082       .  S
C1214      C1215   1.384       .  A
C1215      H1217   1.082       .  S
N1218      N1219   1.324       .  A
N1218      C1222   1.338       .  A
N1219      C1220   1.354       .  A
C1220      C1221   1.393       .  A
C1220      H1223   1.082       .  S
C1221      C1222   1.378       .  A
C1221      C4369   1.483       .  S
C1222      H1224   1.082       .  S
C1225      C1226   1.413       .  A
C1225      C1230   1.412       .  A
C1225      C3929   1.493       .  S
C1226      C1227   1.415       .  A
C1226      C4396   1.481   1_655  S
C1227      C1228   1.413       .  A
C1227      C3466   1.484   1_655  S
C1228      C1229   1.411       .  A
C1228      C3446   1.488       .  S
C1229      C1230   1.414       .  A
C1229      C3479   1.486       .  S
C1230      C3456   1.478       .  S
N1231      N1232   1.324       .  A
N1231      C1235   1.349       .  A
N1231     Cu1239   2.080       .  S
N1232      C1233   1.337       .  A
N1232     Cu1238   2.060       .  S
C1233      C1234   1.375       .  A
C1233      H1236   1.082       .  S
C1234      C1235   1.383       .  A
C1234      C3746   1.465       .  S
C1235      H1237   1.082       .  S
Cu1238     N1241   2.057       .  S
Cu1239     N1249   2.079       .  S
Cu1240     N1242   2.050       .  S
Cu1240     N1248   2.051       .  S
N1241      N1242   1.318       .  A
N1241      C1245   1.344       .  A
N1242      C1243   1.340       .  A
C1243      C1244   1.382       .  A
C1243      H1246   1.082       .  S
C1244      C1245   1.385       .  A
C1244      C1257   1.470       .  S
C1245      H1247   1.082       .  S
N1248      N1249   1.322       .  A
N1248      C1252   1.336       .  A
N1249      C1250   1.349       .  A
C1250      C1251   1.387       .  A
C1250      H1253   1.082       .  S
C1251      C1252   1.378       .  A
C1251      C3719   1.474       .  S
C1252      H1254   1.082       .  S
C1255      C1256   1.404       .  A
C1255      C1260   1.403       .  A
C1255      C1277   1.473       .  S
C1256      C1257   1.401       .  A
C1256      H1261   1.083       .  S
C1257      C1258   1.400       .  A
C1258      C1259   1.398       .  A
C1258      H1262   1.084   1_554  S
C1259      C1260   1.400       .  A
C1259      C1301   1.467   1_554  S
C1260      H1263   1.083       .  S
N1264      N1265   1.324       .  A
N1264      C1268   1.355       .  A
N1264     Cu1272   2.111       .  S
N1265      C1266   1.337       .  A
N1265     Cu1271   2.055       .  S
C1266      C1267   1.376       .  A
C1266      H1269   1.082       .  S
C1267      C1268   1.392       .  A
C1267      C3426   1.481       .  S
C1268      H1270   1.082       .  S
Cu1271     N1274   2.054       .  S
Cu1272     N1282   2.111       .  S
Cu1273     N1275   2.047       .  S
Cu1273     N1281   2.046       .  S
N1274      N1275   1.316       .  A
N1274      C1278   1.342       .  A
N1275      C1276   1.341       .  A
C1276      C1277   1.384       .  A
C1276      H1279   1.082       .  S
C1277      C1278   1.386       .  A
C1278      H1280   1.082       .  S
N1281      N1282   1.324       .  A
N1281      C1285   1.337       .  A
N1282      C1283   1.354       .  A
C1283      C1284   1.392       .  A
C1283      H1286   1.082       .  S
C1284      C1285   1.374       .  A
C1284      C3439   1.477       .  S
C1285      H1287   1.082       .  S
N1288      N1289   1.325       .  A
N1288      C1292   1.358       .  A
N1288     Cu1296   2.134       .  S
N1289      C1290   1.339       .  A
N1289     Cu1295   2.054       .  S
C1290      C1291   1.374       .  A
C1290      H1293   1.082       .  S
C1291      C1292   1.396       .  A
C1291      C3416   1.484       .  S
C1292      H1294   1.082       .  S
Cu1295     N1298   2.052       .  S
Cu1296     N1306   2.134       .  S
Cu1297     N1299   2.054       .  S
Cu1297     N1305   2.056       .  S
N1298      N1299   1.317       .  A
N1298      C1302   1.343       .  A
N1299      C1300   1.342       .  A
C1300      C1301   1.382       .  A
C1300      H1303   1.082       .  S
C1301      C1302   1.382       .  A
C1302      H1304   1.082   1_556  S
N1305      N1306   1.325       .  A
N1305      C1309   1.339       .  A
N1306      C1307   1.358       .  A
C1307      C1308   1.397       .  A
C1307      H1310   1.082       .  S
C1308      C1309   1.376       .  A
C1308      C4639   1.488       .  S
C1309      H1311   1.082       .  S
C1312      C1313   1.413       .  A
C1312      C1317   1.415       .  A
C1312      C4299   1.484       .  S
C1313      C1314   1.412       .  A
C1313      C4529   1.489       .  S
C1314      C1315   1.418       .  A
C1314      C3396   1.490       .  S
C1315      C1316   1.418       .  A
C1315      C3386   1.484       .  S
C1316      C1317   1.418       .  A
C1316      C3419   1.497   1_554  S
C1317      C3409   1.489   1_554  S
N1318      N1319   1.323       .  A
N1318      C1322   1.356       .  A
N1318     Cu1326   2.115       .  S
N1319      C1320   1.337       .  A
N1319     Cu1325   2.049       .  S
C1320      C1321   1.375       .  A
C1320      H1323   1.082       .  S
C1321      C1322   1.394       .  A
C1321      C4339   1.482       .  S
C1322      H1324   1.082       .  S
Cu1325     N1328   2.047       .  S
Cu1326     N1336   2.116       .  S
Cu1327     N1329   2.052       .  S
Cu1327     N1335   2.053       .  S
N1328      N1329   1.317       .  A
N1328      C1332   1.341       .  A
N1329      C1330   1.342       .  A
C1330      C1331   1.384       .  A
C1330      H1333   1.082       .  S
C1331      C1332   1.383       .  A
C1331      C1366   1.470       .  S
C1332      H1334   1.082       .  S
N1335      N1336   1.324       .  A
N1335      C1339   1.337       .  A
N1336      C1337   1.355       .  A
C1337      C1338   1.395       .  A
C1337      H1340   1.082       .  S
C1338      C1339   1.378       .  A
C1338      C3406   1.487       .  S
C1339      H1341   1.082       .  S
N1342      N1343   1.325       .  A
N1342      C1346   1.353       .  A
N1342     Cu1350   2.103       .  S
N1343      C1344   1.337       .  A
N1343     Cu1349   2.059       .  S
C1344      C1345   1.378       .  A
C1344      H1347   1.082       .  S
C1345      C1346   1.390       .  A
C1345      C4599   1.480       .  S
C1346      H1348   1.082       .  S
Cu1349     N1352   2.058       .  S
Cu1350     N1360   2.103       .  S
Cu1351     N1353   2.047       .  S
Cu1351     N1359   2.048       .  S
N1352      N1353   1.317       .  A
N1352      C1356   1.345       .  A
N1353      C1354   1.339       .  A
C1354      C1355   1.382       .  A
C1354      H1357   1.081       .  S
C1355      C1356   1.387       .  A
C1355      C1368   1.473       .  S
C1356      H1358   1.082       .  S
N1359      N1360   1.319       .  A
N1359      C1363   1.337       .  A
N1360      C1361   1.351       .  A
C1361      C1362   1.402       .  A
C1361      H1364   1.079       .  S
C1362      C1363   1.387       .  A
C1362      C3376   1.505       .  S
C1363      H1365   1.077       .  S
C1366      C1367   1.402       .  A
C1366      C1371   1.402       .  A
C1367      C1368   1.401       .  A
C1367      H1372   1.083       .  S
C1368      C1369   1.402       .  A
C1369      C1370   1.399       .  A
C1369      H1373   1.083       .  S
C1370      C1371   1.399       .  A
C1370      C1388   1.470       .  S
C1371      H1374   1.083       .  S
N1375      N1376   1.323       .  A
N1375      C1379   1.350       .  A
N1375     Cu1383   2.083       .  S
N1376      C1377   1.338       .  A
N1376     Cu1382   2.052       .  S
C1377      C1378   1.376       .  A
C1377      H1380   1.082       .  S
C1378      C1379   1.386       .  A
C1378      C3366   1.470       .  S
C1379      H1381   1.082       .  S
Cu1382     N1385   2.051       .  S
Cu1383     N1393   2.084       .  S
Cu1384     N1386   2.058       .  S
Cu1384     N1392   2.060       .  S
N1385      N1386   1.318       .  A
N1385      C1389   1.341       .  A
N1386      C1387   1.344       .  A
C1387      C1388   1.384       .  A
C1387      H1390   1.082       .  S
C1388      C1389   1.382       .  A
C1389      H1391   1.082       .  S
N1392      N1393   1.324       .  A
N1392      C1396   1.339       .  A
N1393      C1394   1.349       .  A
C1394      C1395   1.384       .  A
C1394      H1397   1.082       .  S
C1395      C1396   1.376       .  A
C1395      C3356   1.468       .  S
C1396      H1398   1.082       .  S
N1399      N1400   1.324       .  A
N1399      C1403   1.352       .  A
N1399     Cu1407   2.093       .  S
N1400      C1401   1.338       .  A
N1400     Cu1406   2.059       .  S
C1401      C1402   1.376       .  A
C1401      H1404   1.082       .  S
C1402      C1403   1.386       .  A
C1402      C3346   1.470       .  S
C1403      H1405   1.082       .  S
Cu1406     N1409   2.057       .  S
Cu1407     N1417   2.093       .  S
Cu1408     N1410   2.052       .  S
Cu1408     N1416   2.054       .  S
N1409      N1410   1.318       .  A
N1409      C1413   1.343       .  A
N1410      C1411   1.342       .  A
C1411      C1412   1.382       .  A
C1411      H1414   1.082       .  S
C1412      C1413   1.383       .  A
C1412      C1475   1.467       .  S
C1413      H1415   1.082       .  S
N1416      N1417   1.323       .  A
N1416      C1420   1.338       .  A
N1417      C1418   1.351       .  A
C1418      C1419   1.388       .  A
C1418      H1421   1.082       .  S
C1419      C1420   1.377       .  A
C1419      C4179   1.474       .  S
C1420      H1422   1.082       .  S
N1423      N1424   1.324       .  A
N1423      C1427   1.354       .  A
N1423     Cu1431   2.111       .  S
N1424      C1425   1.338       .  A
N1424     Cu1430   2.053       .  S
C1425      C1426   1.375       .  A
C1425      H1428   1.082       .  S
C1426      C1427   1.391       .  A
C1426      C3336   1.477       .  S
C1427      H1429   1.082       .  S
Cu1430     N1433   2.051       .  S
Cu1431     N1441   2.110       .  S
Cu1432     N1434   2.051       .  S
Cu1432     N1440   2.052       .  S
N1433      N1434   1.317       .  A
N1433      C1437   1.342       .  A
N1434      C1435   1.342       .  A
C1435      C1436   1.383       .  A
C1435      H1438   1.082       .  S
C1436      C1437   1.383       .  A
C1436      C1473   1.469       .  S
C1437      H1439   1.082       .  S
N1440      N1441   1.324       .  A
N1440      C1444   1.337       .  A
N1441      C1442   1.354       .  A
C1442      C1443   1.392       .  A
C1442      H1445   1.082       .  S
C1443      C1444   1.376       .  A
C1443      C3469   1.480       .  S
C1444      H1446   1.082       .  S
N1447      N1448   1.324       .  A
N1447      C1451   1.352       .  A
N1447     Cu1455   2.105       .  S
N1448      C1449   1.339       .  A
N1448     Cu1454   2.050       .  S
C1449      C1450   1.374       .  A
C1449      H1452   1.082       .  S
C1450      C1451   1.389       .  A
C1450      C3326   1.473       .  S
C1451      H1453   1.082       .  S
Cu1454     N1457   2.048       .  S
Cu1455     N1465   2.105       .  S
Cu1456     N1458   2.053       .  S
Cu1456     N1464   2.054       .  S
N1457      N1458   1.317       .  A
N1457      C1461   1.341       .  A
N1458      C1459   1.342       .  A
C1459      C1460   1.384       .  A
C1459      H1462   1.082       .  S
C1460      C1461   1.383       .  A
C1460      C1471   1.469       .  S
C1461      H1463   1.082       .  S
N1464      N1465   1.323       .  A
N1464      C1468   1.336       .  A
N1465      C1466   1.354       .  A
C1466      C1467   1.393       .  A
C1466      H1469   1.082       .  S
C1467      C1468   1.377       .  A
C1467      C3316   1.482       .  S
C1468      H1470   1.082       .  S
C1471      C1472   1.401       .  A
C1471      C1476   1.401       .  A
C1472      C1473   1.401       .  A
C1472      H1477   1.083       .  S
C1473      C1474   1.401       .  A
C1474      C1475   1.400       .  A
C1474      H1478   1.084       .  S
C1475      C1476   1.400       .  A
C1476      H1479   1.084       .  S
C1480      C1481   1.428       .  A
C1480      C1485   1.418       .  A
C1480      C4139   1.488       .  S
C1481      C1482   1.429       .  A
C1481      C3379   1.511       .  S
C1482      C1483   1.416       .  A
C1482      C3329   1.493       .  S
C1483      C1484   1.409       .  A
C1483      C3306   1.491       .  S
C1484      C1485   1.411       .  A
C1484      C3496   1.484       .  S
C1485      C3296   1.492       .  S
N1486      N1487   1.322       .  A
N1486      C1490   1.355       .  A
N1486     Cu1494   2.111       .  S
N1487      C1488   1.337       .  A
N1487     Cu1493   2.047       .  S
C1488      C1489   1.376       .  A
C1488      H1491   1.082       .  S
C1489      C1490   1.394       .  A
C1489      C4189   1.482       .  S
C1490      H1492   1.082       .  S
Cu1493     N1496   2.046       .  S
Cu1494     N1504   2.112       .  S
Cu1495     N1497   2.059       .  S
Cu1495     N1503   2.061       .  S
N1496      N1497   1.317       .  A
N1496      C1500   1.339       .  A
N1497      C1498   1.345       .  A
C1498      C1499   1.386       .  A
C1498      H1501   1.082       .  S
C1499      C1500   1.383       .  A
C1499      C1512   1.473       .  S
C1500      H1502   1.082       .  S
N1503      N1504   1.325       .  A
N1503      C1507   1.338       .  A
N1504      C1505   1.354       .  A
C1505      C1506   1.392       .  A
C1505      H1508   1.082       .  S
C1506      C1507   1.378       .  A
C1506      C3286   1.484       .  S
C1507      H1509   1.082       .  S
C1510      C1511   1.398       .  A
C1510      C1515   1.400       .  A
C1510      C1556   1.467       .  S
C1511      C1512   1.401       .  A
C1511      H1516   1.083       .  S
C1512      C1513   1.402       .  A
C1513      C1514   1.404       .  A
C1513      H1517   1.083       .  S
C1514      C1515   1.404       .  A
C1514      C1532   1.471       .  S
C1515      H1518   1.084       .  S
N1519      N1520   1.324       .  A
N1519      C1523   1.353       .  A
N1519     Cu1527   2.094       .  S
N1520      C1521   1.336       .  A
N1520     Cu1526   2.060       .  S
C1521      C1522   1.378       .  A
C1521      H1524   1.082       .  S
C1522      C1523   1.389       .  A
C1522      C3266   1.478       .  S
C1523      H1525   1.082       .  S
Cu1526     N1529   2.059       .  S
Cu1527     N1537   2.095       .  S
Cu1528     N1530   2.055       .  S
Cu1528     N1536   2.057       .  S
N1529      N1530   1.318       .  A
N1529      C1533   1.344       .  A
N1530      C1531   1.343       .  A
C1531      C1532   1.383       .  A
C1531      H1534   1.082       .  S
C1532      C1533   1.384       .  A
C1533      H1535   1.082       .  S
N1536      N1537   1.324       .  A
N1536      C1540   1.338       .  A
N1537      C1538   1.351       .  A
C1538      C1539   1.389       .  A
C1538      H1541   1.082       .  S
C1539      C1540   1.377       .  A
C1539      C3279   1.476       .  S
C1540      H1542   1.082       .  S
N1543      N1544   1.324       .  A
N1543      C1547   1.355       .  A
N1543     Cu1551   2.118       .  S
N1544      C1545   1.337       .  A
N1544     Cu1550   2.061       .  S
C1545      C1546   1.380       .  A
C1545      H1548   1.082       .  S
C1546      C1547   1.395       .  A
C1546      C3246   1.487       .  S
C1547      H1549   1.082       .  S
Cu1550     N1553   2.060       .  S
Cu1551     N1561   2.118       .  S
Cu1552     N1554   2.052       .  S
Cu1552     N1560   2.054       .  S
N1553      N1554   1.317       .  A
N1553      C1557   1.346       .  A
N1554      C1555   1.341       .  A
C1555      C1556   1.381       .  A
C1555      H1558   1.082       .  S
C1556      C1557   1.384       .  A
C1557      H1559   1.082       .  S
N1560      N1561   1.322       .  A
N1560      C1564   1.338       .  A
N1561      C1562   1.354       .  A
C1562      C1563   1.399       .  A
C1562      H1565   1.081       .  S
C1563      C1564   1.382       .  A
C1563      C3256   1.496       .  S
C1564      H1566   1.080       .  S
C1567      C1568   1.449       .  A
C1567      C1572   1.419       .  A
C1567      C4239   1.481       .  S
C1568      C1569   1.454       .  A
C1568      C4409   1.564       .  S
C1569      C1570   1.428       .  A
C1569      C3349   1.486       .  S
C1570      C1571   1.402       .  A
C1570      C3259   1.499       .  S
C1571      C1572   1.398       .  A
C1571      C3236   1.488       .  S
C1572      C3229   1.492       .  S
C1573      C1574   1.409       .  A
C1573      C1578   1.408       .  A
C1573      C3206   1.484       .  S
C1574      C1575   1.415       .  A
C1574      C4379   1.482       .  S
C1575      C1576   1.416       .  A
C1575      C3919   1.490       .  S
C1576      C1577   1.416       .  A
C1576      C3289   1.483   1_655  S
C1577      C1578   1.411       .  A
C1577      C3216   1.486   1_655  S
C1578      C3599   1.481       .  S
C1579      C1580   1.414       .  A
C1579      C1584   1.414       .  A
C1579      C3186   1.489       .  S
C1580      C1581   1.414       .  A
C1580      C4389   1.483       .  S
C1581      C1582   1.411       .  A
C1581      C4319   1.487       .  S
C1582      C1583   1.414       .  A
C1582      C4039   1.489       .  S
C1583      C1584   1.415       .  A
C1583      C3176   1.479       .  S
C1584      C3196   1.490       .  S
N1585      N1586   1.323       .  A
N1585      C1589   1.352       .  A
N1585     Cu1593   2.098       .  S
N1586      C1587   1.337       .  A
N1586     Cu1592   2.055       .  S
C1587      C1588   1.379       .  A
C1587      H1590   1.082       .  S
C1588      C1589   1.391       .  A
C1588      C3706   1.482       .  S
C1589      H1591   1.082       .  S
Cu1592     N1595   2.055       .  S
Cu1593     N1603   2.098       .  S
Cu1594     N1596   2.051       .  S
Cu1594     N1602   2.053       .  S
N1595      N1596   1.317       .  A
N1595      C1599   1.342       .  A
N1596      C1597   1.342       .  A
C1597      C1598   1.384       .  A
C1597      H1600   1.082       .  S
C1598      C1599   1.385       .  A
C1598      C1611   1.473       .  S
C1599      H1601   1.082       .  S
N1602      N1603   1.323       .  A
N1602      C1606   1.338       .  A
N1603      C1604   1.352       .  A
C1604      C1605   1.389       .  A
C1604      H1607   1.082       .  S
C1605      C1606   1.376       .  A
C1605      C3209   1.476       .  S
C1606      H1608   1.082       .  S
C1609      C1610   1.401       .  A
C1609      C1614   1.401       .  A
C1609      C1655   1.469       .  S
C1610      C1611   1.403       .  A
C1610      H1615   1.083       .  S
C1611      C1612   1.402       .  A
C1612      C1613   1.401       .  A
C1612      H1616   1.083       .  S
C1613      C1614   1.400       .  A
C1613      C1631   1.470       .  S
C1614      H1617   1.083       .  S
N1618      N1619   1.324       .  A
N1618      C1622   1.354       .  A
N1618     Cu1626   2.106       .  S
N1619      C1620   1.338       .  A
N1619     Cu1625   2.056       .  S
C1620      C1621   1.377       .  A
C1620      H1623   1.082       .  S
C1621      C1622   1.391       .  A
C1621      C3166   1.480       .  S
C1622      H1624   1.082       .  S
Cu1625     N1628   2.055       .  S
Cu1626     N1636   2.106       .  S
Cu1627     N1629   2.049       .  S
Cu1627     N1635   2.051       .  S
N1628      N1629   1.317       .  A
N1628      C1632   1.343       .  A
N1629      C1630   1.341       .  A
C1630      C1631   1.383       .  A
C1630      H1633   1.082       .  S
C1631      C1632   1.384       .  A
C1632      H1634   1.082       .  S
N1635      N1636   1.324       .  A
N1635      C1639   1.338       .  A
N1636      C1637   1.353       .  A
C1637      C1638   1.390       .  A
C1637      H1640   1.082       .  S
C1638      C1639   1.374       .  A
C1638      C3156   1.474       .  S
C1639      H1641   1.082       .  S
N1642      N1643   1.325       .  A
N1642      C1646   1.353       .  A
N1642     Cu1650   2.107       .  S
N1643      C1644   1.338       .  A
N1643     Cu1649   2.056       .  S
C1644      C1645   1.374       .  A
C1644      H1647   1.082       .  S
C1645      C1646   1.389       .  A
C1645      C3189   1.474       .  S
C1646      H1648   1.082       .  S
Cu1649     N1652   2.055       .  S
Cu1650     N1660   2.106       .  S
Cu1651     N1653   2.050       .  S
Cu1651     N1659   2.051       .  S
N1652      N1653   1.317       .  A
N1652      C1656   1.343       .  A
N1653      C1654   1.341       .  A
C1654      C1655   1.382       .  A
C1654      H1657   1.082       .  S
C1655      C1656   1.384       .  A
C1656      H1658   1.082       .  S
N1659      N1660   1.323       .  A
N1659      C1663   1.338       .  A
N1660      C1661   1.353       .  A
C1661      C1662   1.391       .  A
C1661      H1664   1.082       .  S
C1662      C1663   1.376       .  A
C1662      C4119   1.478       .  S
C1663      H1665   1.082       .  S
C1666      C1667   1.411       .  A
C1666      C1671   1.411       .  A
C1666      C3136   1.481       .  S
C1667      C1668   1.412       .  A
C1667      C4586   1.482       .  S
C1668      C1669   1.412       .  A
C1668      C4516   1.485       .  S
C1669      C1670   1.415       .  A
C1669      C3146   1.487       .  S
C1670      C1671   1.414       .  A
C1670      C3359   1.481       .  S
C1671      C3126   1.490       .  S
N1672      N1673   1.324       .  A
N1672      C1676   1.351       .  A
N1672     Cu1680   2.092       .  S
N1673      C1674   1.337       .  A
N1673     Cu1679   2.052       .  S
C1674      C1675   1.375       .  A
C1674      H1677   1.082       .  S
C1675      C1676   1.387       .  A
C1675      C3656   1.471       .  S
C1676      H1678   1.082       .  S
Cu1679     N1682   2.051       .  S
Cu1680     N1690   2.093       .  S
Cu1681     N1683   2.049       .  S
Cu1681     N1689   2.051       .  S
N1682      N1683   1.317       .  A
N1682      C1686   1.342       .  A
N1683      C1684   1.342       .  A
C1684      C1685   1.382       .  A
C1684      H1687   1.082       .  S
C1685      C1686   1.383       .  A
C1685      C1698   1.467       .  S
C1686      H1688   1.082       .  S
N1689      N1690   1.323       .  A
N1689      C1693   1.337       .  A
N1690      C1691   1.351       .  A
C1691      C1692   1.388       .  A
C1691      H1694   1.082       .  S
C1692      C1693   1.375       .  A
C1692      C3956   1.473       .  S
C1693      H1695   1.082       .  S
C1696      C1697   1.403       .  A
C1696      C1701   1.403       .  A
C1696      C1742   1.474       .  S
C1697      C1698   1.400       .  A
C1697      H1702   1.083       .  S
C1698      C1699   1.399       .  A
C1699      C1700   1.400       .  A
C1699      H1703   1.084       .  S
C1700      C1701   1.400       .  A
C1700      C1718   1.468       .  S
C1701      H1704   1.083       .  S
N1705      N1706   1.323       .  A
N1705      C1709   1.353       .  A
N1705     Cu1713   2.103       .  S
N1706      C1707   1.337       .  A
N1706     Cu1712   2.051       .  S
C1707      C1708   1.377       .  A
C1707      H1710   1.082       .  S
C1708      C1709   1.392       .  A
C1708      C3116   1.480       .  S
C1709      H1711   1.082       .  S
Cu1712     N1715   2.050       .  S
Cu1713     N1723   2.103       .  S
Cu1714     N1716   2.051       .  S
Cu1714     N1722   2.053       .  S
N1715      N1716   1.317       .  A
N1715      C1719   1.342       .  A
N1716      C1717   1.342       .  A
C1717      C1718   1.383       .  A
C1717      H1720   1.082       .  S
C1718      C1719   1.382       .  A
C1719      H1721   1.082       .  S
N1722      N1723   1.324       .  A
N1722      C1726   1.338       .  A
N1723      C1724   1.352       .  A
C1724      C1725   1.389       .  A
C1724      H1727   1.082       .  S
C1725      C1726   1.375       .  A
C1725      C3106   1.475       .  S
C1726      H1728   1.082       .  S
N1729      N1730   1.323       .  A
N1729      C1733   1.355       .  A
N1729     Cu1737   2.114       .  S
N1730      C1731   1.337       .  A
N1730     Cu1736   2.051       .  S
C1731      C1732   1.377       .  A
C1731      H1734   1.082       .  S
C1732      C1733   1.394       .  A
C1732      C3149   1.484       .  S
C1733      H1735   1.082       .  S
Cu1736     N1739   2.050       .  S
Cu1737     N1747   2.114       .  S
Cu1738     N1740   2.049       .  S
Cu1738     N1746   2.050       .  S
N1739      N1740   1.316       .  A
N1739      C1743   1.342       .  A
N1740      C1741   1.341       .  A
C1741      C1742   1.385       .  A
C1741      H1744   1.082       .  S
C1742      C1743   1.385       .  A
C1743      H1745   1.082       .  S
N1746      N1747   1.324       .  A
N1746      C1750   1.337       .  A
N1747      C1748   1.355       .  A
C1748      C1749   1.394       .  A
C1748      H1751   1.082       .  S
C1749      C1750   1.376       .  A
C1749      C4356   1.483       .  S
C1750      H1752   1.082       .  S
N1753      N1754   1.324       .  A
N1753      C1757   1.357       .  A
N1753     Cu1761   2.125       .  S
N1754      C1755   1.339       .  A
N1754     Cu1760   2.060       .  S
C1755      C1756   1.379       .  A
C1755      H1758   1.081       .  S
C1756      C1757   1.397       .  A
C1756      C3096   1.492       .  S
C1757      H1759   1.082       .  S
Cu1760     N1763   2.059       .  S
Cu1761     N1771   2.124       .  S
Cu1762     N1764   2.046       .  S
Cu1762     N1770   2.046       .  S
N1763      N1764   1.317       .  A
N1763      C1767   1.343       .  A
N1764      C1765   1.341       .  A
C1765      C1766   1.383       .  A
C1765      H1768   1.082       .  S
C1766      C1767   1.386       .  A
C1766      C1779   1.473       .  S
C1767      H1769   1.082       .  S
N1770      N1771   1.323       .  A
N1770      C1774   1.337       .  A
N1771      C1772   1.356       .  A
C1772      C1773   1.397       .  A
C1772      H1775   1.082       .  S
C1773      C1774   1.376       .  A
C1773      C3819   1.487       .  S
C1774      H1776   1.082       .  S
C1777      C1778   1.400       .  A
C1777      C1782   1.402       .  A
C1777      C1799   1.470       .  S
C1778      C1779   1.402   1_565  A
C1778      H1783   1.083       .  S
C1779      C1780   1.400       .  A
C1780      C1781   1.403   1_545  A
C1780      H1784   1.082       .  S
C1781      C1782   1.403       .  A
C1781      C1823   1.476       .  S
C1782      H1785   1.083       .  S
N1786      N1787   1.324       .  A
N1786      C1790   1.354       .  A
N1786     Cu1794   2.110       .  S
N1787      C1788   1.338       .  A
N1787     Cu1793   2.054       .  S
C1788      C1789   1.375       .  A
C1788      H1791   1.082       .  S
C1789      C1790   1.391       .  A
C1789      C4169   1.477       .  S
C1790      H1792   1.082       .  S
Cu1793     N1796   2.053       .  S
Cu1794     N1804   2.110       .  S
Cu1795     N1797   2.057       .  S
Cu1795     N1803   2.059       .  S
N1796      N1797   1.317       .  A
N1796      C1800   1.343       .  A
N1797      C1798   1.343       .  A
C1798      C1799   1.384       .  A
C1798      H1801   1.082       .  S
C1799      C1800   1.383       .  A
C1800      H1802   1.082       .  S
N1803      N1804   1.324       .  A
N1803      C1807   1.338       .  A
N1804      C1805   1.354       .  A
C1805      C1806   1.393       .  A
C1805      H1808   1.082       .  S
C1806      C1807   1.378       .  A
C1806      C4479   1.484       .  S
C1807      H1809   1.082       .  S
N1810      N1811   1.322       .  A
N1810      C1814   1.353       .  A
N1810     Cu1818   2.097       .  S
N1811      C1812   1.336       .  A
N1811     Cu1817   2.053       .  S
C1812      C1813   1.380       .  A
C1812      H1815   1.081       .  S
C1813      C1814   1.393       .  A
C1813      C3086   1.485       .  S
C1814      H1816   1.082   1_545  S
Cu1817     N1820   2.054       .  S
Cu1818     N1828   2.097   1_545  S
Cu1819     N1821   2.051       .  S
Cu1819     N1827   2.052       .  S
N1820      N1821   1.316   1_545  A
N1820      C1824   1.340       .  A
N1821      C1822   1.343       .  A
C1822      C1823   1.386       .  A
C1822      H1825   1.082       .  S
C1823      C1824   1.386   1_565  A
C1824      H1826   1.081       .  S
N1827      N1828   1.324       .  A
N1827      C1831   1.336       .  A
N1828      C1829   1.352   1_565  A
C1829      C1830   1.389   1_545  A
C1829      H1832   1.082       .  S
C1830      C1831   1.375       .  A
C1830      C3869   1.473   1_565  S
C1831      H1833   1.082       .  S
N1834      N1835   1.324       .  A
N1834      C1838   1.351       .  A
N1834     Cu1842   2.090       .  S
N1835      C1836   1.337       .  A
N1835     Cu1841   2.056       .  S
C1836      C1837   1.377       .  A
C1836      H1839   1.082       .  S
C1837      C1838   1.387       .  A
C1837      C3459   1.474       .  S
C1838      H1840   1.082       .  S
Cu1841     N1844   2.056       .  S
Cu1842     N1852   2.090       .  S
Cu1843     N1845   2.048       .  S
Cu1843     N1851   2.047       .  S
N1844      N1845   1.317       .  A
N1844      C1848   1.343       .  A
N1845      C1846   1.340       .  A
C1846      C1847   1.384       .  A
C1846      H1849   1.081       .  S
C1847      C1848   1.387       .  A
C1847      C1882   1.476       .  S
C1848      H1850   1.081       .  S
N1851      N1852   1.322       .  A
N1851      C1855   1.337       .  A
N1852      C1853   1.350       .  A
C1853      C1854   1.389       .  A
C1853      H1856   1.082       .  S
C1854      C1855   1.376       .  A
C1854      C4089   1.474       .  S
C1855      H1857   1.082       .  S
N1858      N1859   1.324       .  A
N1858      C1862   1.354       .  A
N1858     Cu1866   2.110       .  S
N1859      C1860   1.337       .  A
N1859     Cu1865   2.053       .  S
C1860      C1861   1.375       .  A
C1860      H1863   1.082       .  S
C1861      C1862   1.392       .  A
C1861      C3076   1.479       .  S
C1862      H1864   1.082       .  S
Cu1865     N1868   2.052       .  S
Cu1866     N1876   2.110       .  S
Cu1867     N1869   2.050       .  S
Cu1867     N1875   2.052       .  S
N1868      N1869   1.317       .  A
N1868      C1872   1.342       .  A
N1869      C1870   1.342       .  A
C1870      C1871   1.383       .  A
C1870      H1873   1.082       .  S
C1871      C1872   1.383       .  A
C1871      C1884   1.468       .  S
C1872      H1874   1.082       .  S
N1875      N1876   1.324       .  A
N1875      C1879   1.337       .  A
N1876      C1877   1.354       .  A
C1877      C1878   1.391       .  A
C1877      H1880   1.082       .  S
C1878      C1879   1.374       .  A
C1878      C4329   1.476       .  S
C1879      H1881   1.082       .  S
C1882      C1883   1.402       .  A
C1882      C1887   1.403       .  A
C1883      C1884   1.401       .  A
C1883      H1888   1.083       .  S
C1884      C1885   1.401       .  A
C1885      C1886   1.400       .  A
C1885      H1889   1.083       .  S
C1886      C1887   1.400       .  A
C1886      C1904   1.471       .  S
C1887      H1890   1.082       .  S
N1891      N1892   1.323       .  A
N1891      C1895   1.355       .  A
N1891     Cu1899   2.114       .  S
N1892      C1893   1.338       .  A
N1892     Cu1898   2.053       .  S
C1893      C1894   1.379       .  A
C1893      H1896   1.082       .  S
C1894      C1895   1.395       .  A
C1894      C3199   1.487       .  S
C1895      H1897   1.082       .  S
Cu1898     N1901   2.052       .  S
Cu1899     N1909   2.115       .  S
Cu1900     N1902   2.055       .  S
Cu1900     N1908   2.057       .  S
N1901      N1902   1.317       .  A
N1901      C1905   1.342       .  A
N1902      C1903   1.343       .  A
C1903      C1904   1.384       .  A
C1903      H1906   1.082       .  S
C1904      C1905   1.383       .  A
C1905      H1907   1.082       .  S
N1908      N1909   1.325       .  A
N1908      C1912   1.339       .  A
N1909      C1910   1.354       .  A
C1910      C1911   1.392       .  A
C1910      H1913   1.082       .  S
C1911      C1912   1.376       .  A
C1911      C3066   1.480       .  S
C1912      H1914   1.082       .  S
C1915      C1916   1.412       .  A
C1915      C1920   1.411       .  A
C1915      C3849   1.495       .  S
C1916      C1917   1.414       .  A
C1916      C4019   1.480       .  S
C1917      C1918   1.411       .  A
C1917      C3046   1.480       .  S
C1918      C1919   1.411       .  A
C1918      C3079   1.488       .  S
C1919      C1920   1.414       .  A
C1919      C3119   1.487       .  S
C1920      C3056   1.473       .  S
C1921      C1922   1.409       .  A
C1921      C1926   1.410       .  A
C1921      C4419   1.486       .  S
C1922      C1923   1.413       .  A
C1922      C4249   1.480   1_655  S
C1923      C1924   1.414       .  A
C1923      C3036   1.484   1_655  S
C1924      C1925   1.412       .  A
C1924      C3016   1.486       .  S
C1925      C1926   1.411       .  A
C1925      C4059   1.484       .  S
C1926      C3029   1.479       .  S
N1927      N1928   1.323       .  A
N1927      C1931   1.357       .  A
N1927     Cu1935   2.122       .  S
N1928      C1929   1.337       .  A
N1928     Cu1934   2.050       .  S
C1929      C1930   1.377       .  A
C1929      H1932   1.082       .  S
C1930      C1931   1.396       .  A
C1930      C3449   1.487       .  S
C1931      H1933   1.082       .  S
Cu1934     N1937   2.049       .  S
Cu1935     N1945   2.122       .  S
Cu1936     N1938   2.059       .  S
Cu1936     N1944   2.060       .  S
N1937      N1938   1.317       .  A
N1937      C1941   1.342       .  A
N1938      C1939   1.343       .  A
C1939      C1940   1.386       .  A
C1939      H1942   1.082       .  S
C1940      C1941   1.384       .  A
C1940      C1951   1.474       .  S
C1941      H1943   1.082       .  S
N1944      N1945   1.324       .  A
N1944      C1948   1.338       .  A
N1945      C1946   1.356       .  A
C1946      C1947   1.397       .  A
C1946      H1949   1.081       .  S
C1947      C1948   1.380       .  A
C1947      C3006   1.493       .  S
C1948      H1950   1.081       .  S
C1951      C1952   1.401       .  A
C1951      C1956   1.403       .  A
C1952      C1953   1.402       .  A
C1952      H1957   1.082       .  S
C1953      C1954   1.402       .  A
C1953      C1997   1.474       .  S
C1954      C1955   1.401       .  A
C1954      H1958   1.082       .  S
C1955      C1956   1.402       .  A
C1955      C1973   1.474   1_655  S
C1956      H1959   1.083       .  S
N1960      N1961   1.323       .  A
N1960      C1964   1.353       .  A
N1960     Cu1968   2.105       .  S
N1961      C1962   1.338       .  A
N1961     Cu1967   2.055       .  S
C1962      C1963   1.378       .  A
C1962      H1965   1.082       .  S
C1963      C1964   1.392       .  A
C1963      C3039   1.483       .  S
C1964      H1966   1.082       .  S
Cu1967     N1970   2.054       .  S
Cu1968     N1978   2.105       .  S
Cu1969     N1971   2.057       .  S
Cu1969     N1977   2.058       .  S
N1970      N1971   1.317       .  A
N1970      C1974   1.342       .  A
N1971      C1972   1.343       .  A
C1972      C1973   1.385       .  A
C1972      H1975   1.082       .  S
C1973      C1974   1.385       .  A
C1974      H1976   1.082   1_455  S
N1977      N1978   1.323       .  A
N1977      C1981   1.338       .  A
N1978      C1979   1.354       .  A
C1979      C1980   1.393       .  A
C1979      H1982   1.082       .  S
C1980      C1981   1.379       .  A
C1980      C2996   1.486       .  S
C1981      H1983   1.082       .  S
N1984      N1985   1.323       .  A
N1984      C1988   1.348       .  A
N1984     Cu1992   2.076       .  S
N1985      C1986   1.337       .  A
N1985     Cu1991   2.054       .  S
C1986      C1987   1.377       .  A
C1986      H1989   1.082       .  S
C1987      C1988   1.384       .  A
C1987      C3059   1.468       .  S
C1988      H1990   1.082       .  S
Cu1991     N1994   2.054       .  S
Cu1992     N2002   2.076       .  S
Cu1993     N1995   2.053       .  S
Cu1993     N2001   2.054       .  S
N1994      N1995   1.318       .  A
N1994      C1998   1.342       .  A
N1995      C1996   1.341       .  A
C1996      C1997   1.385       .  A
C1996      H1999   1.082       .  S
C1997      C1998   1.385       .  A
C1998      H2000   1.082       .  S
N2001      N2002   1.323       .  A
N2001      C2005   1.338       .  A
N2002      C2003   1.348       .  A
C2003      C2004   1.385       .  A
C2003      H2006   1.082       .  S
C2004      C2005   1.378       .  A
C2004      C3889   1.471       .  S
C2005      H2007   1.082       .  S
C2008      C2009   1.413       .  A
C2008      C2013   1.417       .  A
C2008      C3109   1.485       .  S
C2009      C2010   1.409       .  A
C2009      C3639   1.484       .  S
C2010      C2011   1.408       .  A
C2010      C2986   1.482       .  S
C2011      C2012   1.413       .  A
C2011      C2976   1.486   1_655  S
C2012      C2013   1.416       .  A
C2012      C3489   1.480   1_655  S
C2013      C3009   1.494       .  S
N2014      N2015   1.324       .  A
N2014      C2018   1.357       .  A
N2014     Cu2022   2.127       .  S
N2015      C2016   1.337       .  A
N2015     Cu2021   2.053       .  S
C2016      C2017   1.378       .  A
C2016      H2019   1.081       .  S
C2017      C2018   1.398       .  A
C2017      C3529   1.492       .  S
C2018      H2020   1.082       .  S
Cu2021     N2024   2.053       .  S
Cu2022     N2032   2.127       .  S
Cu2023     N2025   2.046       .  S
Cu2023     N2031   2.047       .  S
N2024      N2025   1.316       .  A
N2024      C2028   1.343       .  A
N2025      C2026   1.341       .  A
C2026      C2027   1.384       .  A
C2026      H2029   1.082       .  S
C2027      C2028   1.386       .  A
C2027      C2038   1.473   1_455  S
C2028      H2030   1.082   1_455  S
N2031      N2032   1.324       .  A
N2031      C2035   1.337       .  A
N2032      C2033   1.358       .  A
C2033      C2034   1.397       .  A
C2033      H2036   1.082       .  S
C2034      C2035   1.375       .  A
C2034      C2966   1.486       .  S
C2035      H2037   1.082       .  S
C2038      C2039   1.402       .  A
C2038      C2043   1.402       .  A
C2039      C2040   1.402       .  A
C2039      H2044   1.082       .  S
C2040      C2041   1.401       .  A
C2040      C2084   1.471       .  S
C2041      C2042   1.399       .  A
C2041      H2045   1.083       .  S
C2042      C2043   1.399       .  A
C2042      C2060   1.467   1_554  S
C2043      H2046   1.083   1_654  S
N2047      N2048   1.323       .  A
N2047      C2051   1.351       .  A
N2047     Cu2055   2.092       .  S
N2048      C2049   1.337       .  A
N2048     Cu2054   2.050       .  S
C2049      C2050   1.377       .  A
C2049      H2052   1.082       .  S
C2050      C2051   1.389       .  A
C2050      C2989   1.475       .  S
C2051      H2053   1.082       .  S
Cu2054     N2057   2.049       .  S
Cu2055     N2065   2.092       .  S
Cu2056     N2058   2.053       .  S
Cu2056     N2064   2.055       .  S
N2057      N2058   1.317       .  A
N2057      C2061   1.341       .  A
N2058      C2059   1.343       .  A
C2059      C2060   1.383       .  A
C2059      H2062   1.082   1_556  S
C2060      C2061   1.381       .  A
C2061      H2063   1.082       .  S
N2064      N2065   1.324       .  A
N2064      C2068   1.338       .  A
N2065      C2066   1.350       .  A
C2066      C2067   1.386       .  A
C2066      H2069   1.082       .  S
C2067      C2068   1.375       .  A
C2067      C3546   1.471       .  S
C2068      H2070   1.082       .  S
N2071      N2072   1.323       .  A
N2071      C2075   1.349       .  A
N2071     Cu2079   2.081       .  S
N2072      C2073   1.338       .  A
N2072     Cu2078   2.050       .  S
C2073      C2074   1.376       .  A
C2073      H2076   1.082       .  S
C2074      C2075   1.385       .  A
C2074      C3026   1.469       .  S
C2075      H2077   1.082       .  S
Cu2078     N2081   2.049       .  S
Cu2079     N2089   2.080       .  S
Cu2080     N2082   2.054       .  S
Cu2080     N2088   2.055       .  S
N2081      N2082   1.317       .  A
N2081      C2085   1.341       .  A
N2082      C2083   1.342       .  A
C2083      C2084   1.385       .  A
C2083      H2086   1.082       .  S
C2084      C2085   1.383       .  A
C2085      H2087   1.082       .  S
N2088      N2089   1.323       .  A
N2088      C2092   1.337       .  A
N2089      C2090   1.349       .  A
C2090      C2091   1.386       .  A
C2090      H2093   1.082       .  S
C2091      C2092   1.378       .  A
C2091      C3979   1.472       .  S
C2092      H2094   1.082       .  S
N2095      N2096   1.322       .  A
N2095      C2099   1.355       .  A
N2095     Cu2103   2.112       .  S
N2096      C2097   1.336       .  A
N2096     Cu2102   2.045       .  S
C2097      C2098   1.376       .  A
C2097      H2100   1.082       .  S
C2098      C2099   1.395       .  A
C2098      C3129   1.483       .  S
C2099      H2101   1.082       .  S
Cu2102     N2105   2.045       .  S
Cu2103     N2113   2.113       .  S
Cu2104     N2106   2.058       .  S
Cu2104     N2112   2.061       .  S
N2105      N2106   1.317       .  A
N2105      C2109   1.340       .  A
N2106      C2107   1.345       .  A
C2107      C2108   1.386       .  A
C2107      H2110   1.082       .  S
C2108      C2109   1.382       .  A
C2108      C2169   1.472       .  S
C2109      H2111   1.082       .  S
N2112      N2113   1.326       .  A
N2112      C2116   1.339       .  A
N2113      C2114   1.354       .  A
C2114      C2115   1.390       .  A
C2114      H2117   1.082       .  S
C2115      C2116   1.375       .  A
C2115      C2956   1.478       .  S
C2116      H2118   1.082       .  S
N2119      N2120   1.324       .  A
N2119      C2123   1.353       .  A
N2119     Cu2127   2.105       .  S
N2120      C2121   1.338       .  A
N2120     Cu2126   2.063       .  S
C2121      C2122   1.379       .  A
C2121      H2124   1.082       .  S
C2122      C2123   1.392       .  A
C2122      C2946   1.485       .  S
C2123      H2125   1.082       .  S
Cu2126     N2129   2.062       .  S
Cu2127     N2137   2.104       .  S
Cu2128     N2130   2.044       .  S
Cu2128     N2136   2.045       .  S
N2129      N2130   1.317       .  A
N2129      C2133   1.344       .  A
N2130      C2131   1.341       .  A
C2131      C2132   1.383       .  A
C2131      H2134   1.082       .  S
C2132      C2133   1.387       .  A
C2132      C2171   1.474       .  S
C2133      H2135   1.082       .  S
N2136      N2137   1.322       .  A
N2136      C2140   1.335       .  A
N2137      C2138   1.354       .  A
C2138      C2139   1.393       .  A
C2138      H2141   1.082       .  S
C2139      C2140   1.377       .  A
C2139      C3049   1.481       .  S
C2140      H2142   1.082       .  S
N2143      N2144   1.324       .  A
N2143      C2147   1.351       .  A
N2143     Cu2151   2.099       .  S
N2144      C2145   1.339       .  A
N2144     Cu2150   2.061       .  S
C2145      C2146   1.379       .  A
C2145      H2148   1.082       .  S
C2146      C2147   1.390       .  A
C2146      C3809   1.479       .  S
C2147      H2149   1.082       .  S
Cu2150     N2153   2.059       .  S
Cu2151     N2161   2.099       .  S
Cu2152     N2154   2.059       .  S
Cu2152     N2160   2.060       .  S
N2153      N2154   1.319       .  A
N2153      C2157   1.344       .  A
N2154      C2155   1.343       .  A
C2155      C2156   1.382       .  A
C2155      H2158   1.082       .  S
C2156      C2157   1.382       .  A
C2156      C2167   1.468       .  S
C2157      H2159   1.082       .  S
N2160      N2161   1.323       .  A
N2160      C2164   1.340       .  A
N2161      C2162   1.352       .  A
C2162      C2163   1.389       .  A
C2162      H2165   1.082       .  S
C2163      C2164   1.379       .  A
C2163      C4006   1.479       .  S
C2164      H2166   1.082       .  S
C2167      C2168   1.401       .  A
C2167      C2172   1.400       .  A
C2168      C2169   1.403       .  A
C2168      H2173   1.083       .  S
C2169      C2170   1.403       .  A
C2170      C2171   1.400       .  A
C2170      H2174   1.083       .  S
C2171      C2172   1.402       .  A
C2172      H2175   1.083       .  S
N2176      N2177   1.324       .  A
N2176      C2180   1.355       .  A
N2176     Cu2184   2.116       .  S
N2177      C2178   1.339       .  A
N2177     Cu2183   2.054       .  S
C2178      C2179   1.376       .  A
C2178      H2181   1.082       .  S
C2179      C2180   1.393       .  A
C2179      C3399   1.483       .  S
C2180      H2182   1.082       .  S
Cu2183     N2186   2.052       .  S
Cu2184     N2194   2.116       .  S
Cu2185     N2187   2.057       .  S
Cu2185     N2193   2.059       .  S
N2186      N2187   1.317       .  A
N2186      C2190   1.342       .  A
N2187      C2188   1.344       .  A
C2188      C2189   1.384       .  A
C2188      H2191   1.082       .  S
C2189      C2190   1.382       .  A
C2189      C2250   1.469       .  S
C2190      H2192   1.082       .  S
N2193      N2194   1.324       .  A
N2193      C2197   1.338       .  A
N2194      C2195   1.355       .  A
C2195      C2196   1.394       .  A
C2195      H2198   1.082       .  S
C2196      C2197   1.378       .  A
C2196      C3239   1.485       .  S
C2197      H2199   1.082       .  S
N2200      N2201   1.324       .  A
N2200      C2204   1.352       .  A
N2200     Cu2208   2.095       .  S
N2201      C2202   1.337       .  A
N2201     Cu2207   2.055       .  S
C2202      C2203   1.375       .  A
C2202      H2205   1.082       .  S
C2203      C2204   1.387       .  A
C2203      C3179   1.472       .  S
C2204      H2206   1.082       .  S
Cu2207     N2210   2.054       .  S
Cu2208     N2218   2.095       .  S
Cu2209     N2211   2.050       .  S
Cu2209     N2217   2.051       .  S
N2210      N2211   1.317       .  A
N2210      C2214   1.343       .  A
N2211      C2212   1.342       .  A
C2212      C2213   1.384       .  A
C2212      H2215   1.082       .  S
C2213      C2214   1.385       .  A
C2213      C2248   1.472       .  S
C2214      H2216   1.082       .  S
N2217      N2218   1.323       .  A
N2217      C2221   1.336       .  A
N2218      C2219   1.352       .  A
C2219      C2220   1.389       .  A
C2219      H2222   1.082       .  S
C2220      C2221   1.375       .  A
C2220      C3999   1.473       .  S
C2221      H2223   1.082       .  S
N2224      N2225   1.324       .  A
N2224      C2228   1.354       .  A
N2224     Cu2232   2.105       .  S
N2225      C2226   1.338       .  A
N2225     Cu2231   2.059       .  S
C2226      C2227   1.376       .  A
C2226      H2229   1.082       .  S
C2227      C2228   1.390       .  A
C2227      C2936   1.477       .  S
C2228      H2230   1.082       .  S
Cu2231     N2234   2.056       .  S
Cu2232     N2242   2.104       .  S
Cu2233     N2235   2.050       .  S
Cu2233     N2241   2.051       .  S
N2234      N2235   1.317       .  A
N2234      C2238   1.343       .  A
N2235      C2236   1.342       .  A
C2236      C2237   1.383       .  A
C2236      H2239   1.082       .  S
C2237      C2238   1.384       .  A
C2237      C2252   1.470       .  S
C2238      H2240   1.082       .  S
N2241      N2242   1.323       .  A
N2241      C2245   1.337       .  A
N2242      C2243   1.353       .  A
C2243      C2244   1.392       .  A
C2243      H2246   1.082       .  S
C2244      C2245   1.377       .  A
C2244      C2926   1.480       .  S
C2245      H2247   1.082       .  S
C2248      C2249   1.401       .  A
C2248      C2253   1.401       .  A
C2249      C2250   1.401       .  A
C2249      H2254   1.083       .  S
C2250      C2251   1.401       .  A
C2251      C2252   1.402       .  A
C2251      H2255   1.084       .  S
C2252      C2253   1.402       .  A
C2253      H2256   1.083       .  S
N2257      N2258   1.324       .  A
N2257      C2261   1.354       .  A
N2257     Cu2265   2.106       .  S
N2258      C2259   1.338       .  A
N2258     Cu2264   2.056       .  S
C2259      C2260   1.377       .  A
C2259      H2262   1.082       .  S
C2260      C2261   1.391       .  A
C2260      C4609   1.480       .  S
C2261      H2263   1.082       .  S
Cu2264     N2267   2.054       .  S
Cu2265     N2275   2.106       .  S
Cu2266     N2268   2.054       .  S
Cu2266     N2274   2.056       .  S
N2267      N2268   1.317       .  A
N2267      C2271   1.343       .  A
N2268      C2269   1.342       .  A
C2269      C2270   1.383       .  A
C2269      H2272   1.082       .  S
C2270      C2271   1.383       .  A
C2270      C2307   1.469       .  S
C2271      H2273   1.082       .  S
N2274      N2275   1.324       .  A
N2274      C2278   1.338       .  A
N2275      C2276   1.353       .  A
C2276      C2277   1.391       .  A
C2276      H2279   1.082       .  S
C2277      C2278   1.377       .  A
C2277      C3799   1.479       .  S
C2278      H2280   1.082       .  S
N2281      N2282   1.324       .  A
N2281      C2285   1.354       .  A
N2281     Cu2289   2.109       .  S
N2282      C2283   1.338       .  A
N2282     Cu2288   2.054       .  S
C2283      C2284   1.377       .  A
C2283      H2286   1.082       .  S
C2284      C2285   1.393       .  A
C2284      C2919   1.482       .  S
C2285      H2287   1.082       .  S
Cu2288     N2291   2.053       .  S
Cu2289     N2299   2.108       .  S
Cu2290     N2292   2.053       .  S
Cu2290     N2298   2.054       .  S
N2291      N2292   1.317       .  A
N2291      C2295   1.342       .  A
N2292      C2293   1.342       .  A
C2293      C2294   1.384       .  A
C2293      H2296   1.082       .  S
C2294      C2295   1.384       .  A
C2294      C2309   1.472       .  S
C2295      H2297   1.082       .  S
N2298      N2299   1.324       .  A
N2298      C2302   1.337       .  A
N2299      C2300   1.354       .  A
C2300      C2301   1.392       .  A
C2300      H2303   1.082       .  S
C2301      C2302   1.377       .  A
C2301      C4079   1.481       .  S
C2302      H2304   1.082       .  S
C2305      C2306   1.402       .  A
C2305      C2310   1.402       .  A
C2305      C2327   1.472       .  S
C2306      C2307   1.401       .  A
C2306      H2311   1.083       .  S
C2307      C2308   1.401       .  A
C2308      C2309   1.401       .  A
C2308      H2312   1.083       .  S
C2309      C2310   1.401       .  A
C2310      H2313   1.083       .  S
N2314      N2315   1.324       .  A
N2314      C2318   1.357       .  A
N2314     Cu2322   2.127       .  S
N2315      C2316   1.337       .  A
N2315     Cu2321   2.049       .  S
C2316      C2317   1.374       .  A
C2316      H2319   1.082       .  S
C2317      C2318   1.396       .  A
C2317      C2906   1.483       .  S
C2318      H2320   1.082       .  S
Cu2321     N2324   2.048       .  S
Cu2322     N2332   2.127       .  S
Cu2323     N2325   2.053       .  S
Cu2323     N2331   2.054       .  S
N2324      N2325   1.316       .  A
N2324      C2328   1.342       .  A
N2325      C2326   1.342       .  A
C2326      C2327   1.385       .  A
C2326      H2329   1.082       .  S
C2327      C2328   1.384       .  A
C2328      H2330   1.082       .  S
N2331      N2332   1.324       .  A
N2331      C2335   1.337       .  A
N2332      C2333   1.358       .  A
C2333      C2334   1.397       .  A
C2333      H2336   1.082       .  S
C2334      C2335   1.376       .  A
C2334      C4209   1.488       .  S
C2335      H2337   1.082       .  S
C2338      C2339   1.420       .  A
C2338      C2343   1.398       .  A
C2338      C2899   1.497       .  S
C2339      C2340   1.450       .  A
C2339      C3436   1.477       .  S
C2340      C2341   1.453       .  A
C2340      C3249   1.564       .  S
C2341      C2342   1.426       .  A
C2341      C2939   1.488       .  S
C2342      C2343   1.402       .  A
C2342      C2916   1.496       .  S
C2343      C3169   1.487       .  S
C2344      C2345   1.397       .  A
C2344      C2349   1.397       .  A
C2344      C2886   1.490       .  S
C2345      C2346   1.425       .  A
C2345      C4229   1.493       .  S
C2346      C2347   1.453   1_545  A
C2346      C3089   1.487       .  S
C2347      C2348   1.451       .  A
C2347      C2876   1.565       .  S
C2348      C2349   1.422   1_565  A
C2348      C3269   1.477       .  S
C2349      C2866   1.490       .  S
N2350      N2351   1.318       .  A
N2350      C2354   1.355       .  A
N2350     Cu2358   2.108       .  S
N2351      C2352   1.325       .  A
N2351     Cu2357   2.032   1_565  S
C2352      C2353   1.382       .  A
C2352      H2355   1.094   1_565  S
C2353      C2354   1.407       .  A
C2353      C2856   1.505       .  S
C2354      H2356   1.080       .  S
Cu2357     N2360   2.033       .  S
Cu2358     N2368   2.111       .  S
Cu2359     N2361   2.052       .  S
Cu2359     N2367   2.055   1_545  S
N2360      N2361   1.314       .  A
N2360      C2364   1.340       .  A
N2361      C2362   1.343       .  A
C2362      C2363   1.384       .  A
C2362      H2365   1.082       .  S
C2363      C2364   1.379       .  A
C2363      C2376   1.463       .  S
C2364      H2366   1.082   1_545  S
N2367      N2368   1.327       .  A
N2367      C2371   1.335       .  A
N2368      C2369   1.355       .  A
C2369      C2370   1.389       .  A
C2369      H2372   1.082       .  S
C2370      C2371   1.372       .  A
C2370      C3789   1.473       .  S
C2371      H2373   1.082       .  S
C2374      C2375   1.402       .  A
C2374      C2379   1.404       .  A
C2374      C2396   1.471       .  S
C2375      C2376   1.397       .  A
C2375      H2380   1.083       .  S
C2376      C2377   1.398   1_545  A
C2377      C2378   1.400       .  A
C2377      H2381   1.084       .  S
C2378      C2379   1.402   1_565  A
C2378      C2420   1.467       .  S
C2379      H2382   1.083       .  S
N2383      N2384   1.323       .  A
N2383      C2387   1.354       .  A
N2383     Cu2391   2.108       .  S
N2384      C2385   1.337       .  A
N2384     Cu2390   2.050       .  S
C2385      C2386   1.376       .  A
C2385      H2388   1.082       .  S
C2386      C2387   1.393       .  A
C2386      C3989   1.481       .  S
C2387      H2389   1.082       .  S
Cu2390     N2393   2.049       .  S
Cu2391     N2401   2.108       .  S
Cu2392     N2394   2.054       .  S
Cu2392     N2400   2.056       .  S
N2393      N2394   1.317       .  A
N2393      C2397   1.341       .  A
N2394      C2395   1.343       .  A
C2395      C2396   1.385       .  A
C2395      H2398   1.082       .  S
C2396      C2397   1.384       .  A
C2397      H2399   1.082       .  S
N2400      N2401   1.324       .  A
N2400      C2404   1.338       .  A
N2401      C2402   1.354       .  A
C2402      C2403   1.392       .  A
C2402      H2405   1.082       .  S
C2403      C2404   1.377       .  A
C2403      C2889   1.482       .  S
C2404      H2406   1.082       .  S
N2407      N2408   1.324       .  A
N2407      C2411   1.357       .  A
N2407     Cu2415   2.125       .  S
N2408      C2409   1.337       .  A
N2408     Cu2414   2.057       .  S
C2409      C2410   1.378       .  A
C2409      H2412   1.082       .  S
C2410      C2411   1.397       .  A
C2410      C3756   1.488       .  S
C2411      H2413   1.082       .  S
Cu2414     N2417   2.054       .  S
Cu2415     N2425   2.125       .  S
Cu2416     N2418   2.050       .  S
Cu2416     N2424   2.051       .  S
N2417      N2418   1.317       .  A
N2417      C2421   1.344       .  A
N2418      C2419   1.341       .  A
C2419      C2420   1.382       .  A
C2419      H2422   1.082       .  S
C2420      C2421   1.383       .  A
C2421      H2423   1.082       .  S
N2424      N2425   1.324       .  A
N2424      C2428   1.338       .  A
N2425      C2426   1.356       .  A
C2426      C2427   1.396       .  A
C2426      H2429   1.082       .  S
C2427      C2428   1.376       .  A
C2427      C2896   1.487       .  S
C2428      H2430   1.082       .  S
N2431      N2432   1.324       .  A
N2431      C2435   1.353       .  A
N2431     Cu2439   2.104       .  S
N2432      C2433   1.338       .  A
N2432     Cu2438   2.055       .  S
C2433      C2434   1.375       .  A
C2433      H2436   1.082       .  S
C2434      C2435   1.389       .  A
C2434      C3019   1.473       .  S
C2435      H2437   1.082       .  S
Cu2438     N2441   2.053       .  S
Cu2439     N2449   2.104       .  S
Cu2440     N2442   2.052       .  S
Cu2440     N2448   2.054       .  S
N2441      N2442   1.317       .  A
N2441      C2445   1.342       .  A
N2442      C2443   1.342       .  A
C2443      C2444   1.382       .  A
C2443      H2446   1.082       .  S
C2444      C2445   1.383       .  A
C2444      C2455   1.468       .  S
C2445      H2447   1.082       .  S
N2448      N2449   1.324       .  A
N2448      C2452   1.338       .  A
N2449      C2450   1.353       .  A
C2450      C2451   1.391       .  A
C2450      H2453   1.082       .  S
C2451      C2452   1.376       .  A
C2451      C3899   1.478       .  S
C2452      H2454   1.082       .  S
C2455      C2456   1.401       .  A
C2455      C2460   1.401       .  A
C2456      C2457   1.401       .  A
C2456      H2461   1.083       .  S
C2457      C2458   1.401   1_545  A
C2457      C2477   1.472       .  S
C2458      C2459   1.401       .  A
C2458      H2462   1.083       .  S
C2459      C2460   1.401   1_565  A
C2459      C2501   1.471   1_655  S
C2460      H2463   1.083   1_655  S
N2464      N2465   1.324       .  A
N2464      C2468   1.353       .  A
N2464     Cu2472   2.102       .  S
N2465      C2466   1.337       .  A
N2465     Cu2471   2.048       .  S
C2466      C2467   1.374       .  A
C2466      H2469   1.082       .  S
C2467      C2468   1.390       .  A
C2467      C3556   1.473       .  S
C2468      H2470   1.082       .  S
Cu2471     N2474   2.048       .  S
Cu2472     N2482   2.103   1_565  S
Cu2473     N2475   2.050       .  S
Cu2473     N2481   2.052       .  S
N2474      N2475   1.316   1_565  A
N2474      C2478   1.341       .  A
N2475      C2476   1.342       .  A
C2476      C2477   1.385       .  A
C2476      H2479   1.082       .  S
C2477      C2478   1.384   1_545  A
C2478      H2480   1.082       .  S
N2481      N2482   1.324       .  A
N2481      C2485   1.337       .  A
N2482      C2483   1.353   1_545  A
C2483      C2484   1.389   1_565  A
C2483      H2486   1.082       .  S
C2484      C2485   1.374       .  A
C2484      C2846   1.473   1_545  S
C2485      H2487   1.082       .  S
N2488      N2489   1.322       .  A
N2488      C2492   1.353       .  A
N2488     Cu2496   2.102       .  S
N2489      C2490   1.339       .  A
N2489     Cu2495   2.054       .  S
C2490      C2491   1.379       .  A
C2490      H2493   1.082       .  S
C2491      C2492   1.391       .  A
C2491      C3219   1.481       .  S
C2492      H2494   1.082       .  S
Cu2495     N2498   2.053       .  S
Cu2496     N2506   2.103       .  S
Cu2497     N2499   2.062       .  S
Cu2497     N2505   2.063       .  S
N2498      N2499   1.319       .  A
N2498      C2502   1.341       .  A
N2499      C2500   1.344       .  A
C2500      C2501   1.384       .  A
C2500      H2503   1.082       .  S
C2501      C2502   1.382       .  A
C2502      H2504   1.082   1_455  S
N2505      N2506   1.325       .  A
N2505      C2509   1.344       .  A
N2506      C2507   1.349       .  A
C2507      C2508   1.388       .  A
C2507      H2510   1.082       .  S
C2508      C2509   1.376       .  A
C2508      C2879   1.474       .  S
C2509      H2511   1.082       .  S
C2512      C2513   1.419   1_565  A
C2512      C2517   1.420       .  A
C2512      C2859   1.485       .  S
C2513      C2514   1.417       .  A
C2513      C3836   1.496       .  S
C2514      C2515   1.411   1_545  A
C2514      C4069   1.483       .  S
C2515      C2516   1.408       .  A
C2515      C2849   1.484       .  S
C2516      C2517   1.409       .  A
C2516      C3689   1.482       .  S
C2517      C3159   1.491       .  S
C2518      C2519   1.415       .  A
C2518      C2523   1.414       .  A
C2518      C2999   1.489       .  S
C2519      C2520   1.418       .  A
C2519      C4219   1.489       .  S
C2520      C2521   1.418       .  A
C2520      C3099   1.495       .  S
C2521      C2522   1.418       .  A
C2521      C2959   1.487       .  S
C2522      C2523   1.413       .  A
C2522      C2836   1.491       .  S
C2523      C3339   1.488       .  S
N2524      N2525   1.323       .  A
N2524      C2528   1.354       .  A
N2524     Cu2532   2.105       .  S
N2525      C2526   1.337       .  A
N2525     Cu2531   2.052       .  S
C2526      C2527   1.376       .  A
C2526      H2529   1.082       .  S
C2527      C2528   1.392       .  A
C2527      C2979   1.479       .  S
C2528      H2530   1.082       .  S
Cu2531     N2534   2.051       .  S
Cu2532     N2542   2.106       .  S
Cu2533     N2535   2.056       .  S
Cu2533     N2541   2.058       .  S
N2534      N2535   1.317       .  A
N2534      C2538   1.342       .  A
N2535      C2536   1.343       .  A
C2536      C2537   1.385       .  A
C2536      H2539   1.082       .  S
C2537      C2538   1.383       .  A
C2537      C2550   1.472       .  S
C2538      H2540   1.082       .  S
N2541      N2542   1.324       .  A
N2541      C2545   1.338       .  A
N2542      C2543   1.353       .  A
C2543      C2544   1.391       .  A
C2543      H2546   1.082       .  S
C2544      C2545   1.378       .  A
C2544      C2826   1.482       .  S
C2545      H2547   1.082       .  S
C2548      C2549   1.402       .  A
C2548      C2553   1.402       .  A
C2548      C2570   1.473       .  S
C2549      C2550   1.402       .  A
C2549      H2554   1.083       .  S
C2550      C2551   1.401       .  A
C2551      C2552   1.402       .  A
C2551      H2555   1.083       .  S
C2552      C2553   1.402       .  A
C2552      C2594   1.473       .  S
C2553      H2556   1.083       .  S
N2557      N2558   1.324       .  A
N2557      C2561   1.357       .  A
N2557     Cu2565   2.124       .  S
N2558      C2559   1.337       .  A
N2558     Cu2564   2.055       .  S
C2559      C2560   1.378       .  A
C2559      H2562   1.082       .  S
C2560      C2561   1.397       .  A
C2560      C2839   1.490       .  S
C2561      H2563   1.082       .  S
Cu2564     N2567   2.054       .  S
Cu2565     N2575   2.124       .  S
Cu2566     N2568   2.054       .  S
Cu2566     N2574   2.055       .  S
N2567      N2568   1.317       .  A
N2567      C2571   1.343       .  A
N2568      C2569   1.343       .  A
C2569      C2570   1.385       .  A
C2569      H2572   1.082       .  S
C2570      C2571   1.385       .  A
C2571      H2573   1.082       .  S
N2574      N2575   1.324       .  A
N2574      C2578   1.338       .  A
N2575      C2576   1.357       .  A
C2576      C2577   1.396       .  A
C2576      H2579   1.082       .  S
C2577      C2578   1.377       .  A
C2577      C3309   1.487       .  S
C2578      H2580   1.082       .  S
N2581      N2582   1.323       .  A
N2581      C2585   1.351       .  A
N2581     Cu2589   2.093       .  S
N2582      C2583   1.337       .  A
N2582     Cu2588   2.057       .  S
C2583      C2584   1.379       .  A
C2583      H2586   1.082       .  S
C2584      C2585   1.390       .  A
C2584      C4469   1.479       .  S
C2585      H2587   1.082       .  S
Cu2588     N2591   2.056       .  S
Cu2589     N2599   2.094       .  S
Cu2590     N2592   2.054       .  S
Cu2590     N2598   2.055       .  S
N2591      N2592   1.317       .  A
N2591      C2595   1.343       .  A
N2592      C2593   1.342       .  A
C2593      C2594   1.384       .  A
C2593      H2596   1.082       .  S
C2594      C2595   1.385       .  A
C2595      H2597   1.082       .  S
N2598      N2599   1.323       .  A
N2598      C2602   1.338       .  A
N2599      C2600   1.351       .  A
C2600      C2601   1.388       .  A
C2600      H2603   1.082       .  S
C2601      C2602   1.377       .  A
C2601      C3139   1.476       .  S
C2602      H2604   1.082       .  S
N2605      N2606   1.323       .  A
N2605      C2609   1.353       .  A
N2605     Cu2613   2.105       .  S
N2606      C2607   1.336       .  A
N2606     Cu2612   2.043       .  S
C2607      C2608   1.375       .  A
C2607      H2610   1.082       .  S
C2608      C2609   1.392       .  A
C2608      C3226   1.477       .  S
C2609      H2611   1.082       .  S
Cu2612     N2615   2.042       .  S
Cu2613     N2623   2.106       .  S
Cu2614     N2616   2.060       .  S
Cu2614     N2622   2.062       .  S
N2615      N2616   1.317       .  A
N2615      C2619   1.340       .  A
N2616      C2617   1.344       .  A
C2617      C2618   1.385       .  A
C2617      H2620   1.082       .  S
C2618      C2619   1.380       .  A
C2618      C2655   1.467       .  S
C2619      H2621   1.082       .  S
N2622      N2623   1.325       .  A
N2622      C2626   1.339       .  A
N2623      C2624   1.353       .  A
C2624      C2625   1.390       .  A
C2624      H2627   1.082       .  S
C2625      C2626   1.378       .  A
C2625      C2816   1.480       .  S
C2626      H2628   1.082       .  S
N2629      N2630   1.323       .  A
N2629      C2633   1.354       .  A
N2629     Cu2637   2.105       .  S
N2630      C2631   1.336       .  A
N2630     Cu2636   2.047       .  S
C2631      C2632   1.375       .  A
C2631      H2634   1.082       .  S
C2632      C2633   1.392       .  A
C2632      C2809   1.476       .  S
C2633      H2635   1.082       .  S
Cu2636     N2639   2.046       .  S
Cu2637     N2647   2.106       .  S
Cu2638     N2640   2.060       .  S
Cu2638     N2646   2.062       .  S
N2639      N2640   1.317       .  A
N2639      C2643   1.341       .  A
N2640      C2641   1.344       .  A
C2641      C2642   1.386       .  A
C2641      H2644   1.082       .  S
C2642      C2643   1.383       .  A
C2642      C2657   1.472       .  S
C2643      H2645   1.082       .  S
N2646      N2647   1.324       .  A
N2646      C2650   1.338       .  A
N2647      C2648   1.353       .  A
C2648      C2649   1.392       .  A
C2648      H2651   1.082       .  S
C2649      C2650   1.379       .  A
C2649      C3389   1.485       .  S
C2650      H2652   1.082       .  S
C2653      C2654   1.401       .  A
C2653      C2658   1.401       .  A
C2653      C2675   1.468   1_554  S
C2654      C2655   1.399       .  A
C2654      H2659   1.084       .  S
C2655      C2656   1.401       .  A
C2656      C2657   1.401       .  A
C2656      H2660   1.083       .  S
C2657      C2658   1.403       .  A
C2658      H2661   1.083   1_554  S
N2662      N2663   1.325       .  A
N2662      C2666   1.354       .  A
N2662     Cu2670   2.109       .  S
N2663      C2664   1.338       .  A
N2663     Cu2669   2.055       .  S
C2664      C2665   1.375       .  A
C2664      H2667   1.082       .  S
C2665      C2666   1.391       .  A
C2665      C3299   1.477       .  S
C2666      H2668   1.082       .  S
Cu2669     N2672   2.053       .  S
Cu2670     N2680   2.108       .  S
Cu2671     N2673   2.049       .  S
Cu2671     N2679   2.050       .  S
N2672      N2673   1.317       .  A
N2672      C2676   1.343       .  A
N2673      C2674   1.342       .  A
C2674      C2675   1.382       .  A
C2674      H2677   1.082   1_556  S
C2675      C2676   1.383       .  A
C2676      H2678   1.082       .  S
N2679      N2680   1.324       .  A
N2679      C2683   1.337       .  A
N2680      C2681   1.354       .  A
C2681      C2682   1.391       .  A
C2681      H2684   1.082       .  S
C2682      C2683   1.375       .  A
C2682      C3519   1.477       .  S
C2683      H2685   1.082       .  S
C2686      C2687   1.415       .  A
C2686      C2691   1.414       .  A
C2686      C4489   1.484       .  S
C2687      C2688   1.414       .  A
C2687      C4269   1.488       .  S
C2688      C2689   1.414       .  A
C2688      C2819   1.484       .  S
C2689      C2690   1.415       .  A
C2689      C2969   1.490       .  S
C2690      C2691   1.416       .  A
C2690      C2829   1.483   1_554  S
C2691      C2796   1.492   1_554  S
C2692      C2693   1.418       .  A
C2692      C2697   1.416       .  A
C2692      C4126   1.488   1_554  S
C2693      C2694   1.415       .  A
C2693      C3576   1.493   1_554  S
C2694      C2695   1.413       .  A
C2694      C2786   1.482       .  S
C2695      C2696   1.409       .  A
C2695      C3276   1.484       .  S
C2696      C2697   1.412       .  A
C2696      C3429   1.488       .  S
C2697      C2806   1.483       .  S
N2698      N2699   1.324   1_545  A
N2698      C2702   1.354       .  A
N2698     Cu2706   2.106       .  S
N2699      C2700   1.336       .  A
N2699     Cu2705   2.049       .  S
C2700      C2701   1.374   1_565  A
C2700      H2703   1.082       .  S
C2701      C2702   1.391       .  A
C2701      C2869   1.476       .  S
C2702      H2704   1.082       .  S
Cu2705     N2708   2.048       .  S
Cu2706     N2716   2.106       .  S
Cu2707     N2709   2.046       .  S
Cu2707     N2715   2.045       .  S
N2708      N2709   1.316   1_565  A
N2708      C2712   1.342       .  A
N2709      C2710   1.340       .  A
C2710      C2711   1.384   1_545  A
C2710      H2713   1.081       .  S
C2711      C2712   1.385       .  A
C2711      C2724   1.472       .  S
C2712      H2714   1.082       .  S
N2715      N2716   1.323       .  A
N2715      C2719   1.336       .  A
N2716      C2717   1.353       .  A
C2717      C2718   1.392       .  A
C2717      H2720   1.082       .  S
C2718      C2719   1.375       .  A
C2718      C3766   1.477       .  S
C2719      H2721   1.082       .  S
C2722      C2723   1.401       .  A
C2722      C2727   1.403       .  A
C2722      C2744   1.470       .  S
C2723      C2724   1.402       .  A
C2723      H2728   1.083       .  S
C2724      C2725   1.402   1_565  A
C2725      C2726   1.399       .  A
C2725      H2729   1.083       .  S
C2726      C2727   1.400   1_545  A
C2726      C2768   1.468   1_554  S
C2727      H2730   1.083   1_554  S
N2731      N2732   1.324       .  A
N2731      C2735   1.352       .  A
N2731     Cu2739   2.100       .  S
N2732      C2733   1.338       .  A
N2732     Cu2738   2.060       .  S
C2733      C2734   1.378       .  A
C2733      H2736   1.082       .  S
C2734      C2735   1.390       .  A
C2734      C2789   1.480       .  S
C2735      H2737   1.082       .  S
Cu2738     N2741   2.059       .  S
Cu2739     N2749   2.099       .  S
Cu2740     N2742   2.046       .  S
Cu2740     N2748   2.047       .  S
N2741      N2742   1.317       .  A
N2741      C2745   1.343       .  A
N2742      C2743   1.341       .  A
C2743      C2744   1.382       .  A
C2743      H2746   1.082       .  S
C2744      C2745   1.385       .  A
C2745      H2747   1.082       .  S
N2748      N2749   1.323       .  A
N2748      C2752   1.337       .  A
N2749      C2750   1.352       .  A
C2750      C2751   1.390       .  A
C2750      H2753   1.082       .  S
C2751      C2752   1.375       .  A
C2751      C3539   1.474       .  S
C2752      H2754   1.082       .  S
N2755      N2756   1.324       .  A
N2755      C2759   1.357       .  A
N2755     Cu2763   2.125       .  S
N2756      C2757   1.338       .  A
N2756     Cu2762   2.054       .  S
C2757      C2758   1.376       .  A
C2757      H2760   1.082       .  S
C2758      C2759   1.395       .  A
C2758      C2799   1.485       .  S
C2759      H2761   1.082       .  S
Cu2762     N2765   2.052       .  S
Cu2763     N2773   2.125       .  S
Cu2764     N2766   2.054       .  S
Cu2764     N2772   2.056       .  S
N2765      N2766   1.317       .  A
N2765      C2769   1.342       .  A
N2766      C2767   1.343       .  A
C2767      C2768   1.383       .  A
C2767      H2770   1.082       .  S
C2768      C2769   1.382       .  A
C2769      H2771   1.082   1_556  S
N2772      N2773   1.325       .  A
N2772      C2776   1.339       .  A
N2773      C2774   1.356       .  A
C2774      C2775   1.395       .  A
C2774      H2777   1.082       .  S
C2775      C2776   1.376       .  A
C2775      C4439   1.485       .  S
C2776      H2778   1.082       .  S
C2779      C2780   1.412       .  A
C2779      C2784   1.413       .  A
C2779      C2949   1.488       .  S
C2780      C2781   1.411       .  A
C2780      C3369   1.481       .  S
C2781      C2782   1.411       .  A
C2781      C3319   1.484       .  S
C2782      C2783   1.415       .  A
C2782      C2909   1.490       .  S
C2783      C2784   1.418       .  A
C2783      C2929   1.481       .  S
C2784      C3069   1.489       .  S
C2785      C2786   1.405       .  A
C2785      C2790   1.406       .  A
C2785      F2792   1.357       .  S
C2786      C2787   1.401       .  A
C2787      C2788   1.392       .  A
C2787      F2794   1.358       .  S
C2788      C2789   1.408       .  A
C2788      F2793   1.358       .  S
C2789      C2790   1.408       .  A
C2790      F2791   1.357       .  S
C2795      C2796   1.402       .  A
C2795      C2800   1.397       .  A
C2795      F2802   1.358   1_556  S
C2796      C2797   1.408       .  A
C2797      C2798   1.408       .  A
C2797      F2804   1.357       .  S
C2798      C2799   1.407       .  A
C2798      F2803   1.357       .  S
C2799      C2800   1.408       .  A
C2800      F2801   1.358       .  S
C2805      C2806   1.405       .  A
C2805      C2810   1.405       .  A
C2805      F2812   1.357   1_554  S
C2806      C2807   1.401       .  A
C2807      C2808   1.393       .  A
C2807      F2814   1.358       .  S
C2808      C2809   1.407       .  A
C2808      F2813   1.358       .  S
C2809      C2810   1.406       .  A
C2810      F2811   1.357   1_554  S
C2815      C2816   1.407       .  A
C2815      C2820   1.405       .  A
C2815      F2822   1.357       .  S
C2816      C2817   1.407       .  A
C2817      C2818   1.394       .  A
C2817      F2824   1.358       .  S
C2818      C2819   1.401       .  A
C2818      F2823   1.358       .  S
C2819      C2820   1.405       .  A
C2820      F2821   1.357       .  S
C2825      C2826   1.408       .  A
C2825      C2830   1.405       .  A
C2825      F2832   1.357       .  S
C2826      C2827   1.409       .  A
C2827      C2828   1.393       .  A
C2827      F2834   1.358       .  S
C2828      C2829   1.400       .  A
C2828      F2833   1.358       .  S
C2829      C2830   1.406       .  A
C2830      F2831   1.357   1_556  S
C2835      C2836   1.400       .  A
C2835      C2840   1.395       .  A
C2835      F2842   1.358       .  S
C2836      C2837   1.408       .  A
C2837      C2838   1.408       .  A
C2837      F2844   1.357       .  S
C2838      C2839   1.409       .  A
C2838      F2843   1.357       .  S
C2839      C2840   1.411       .  A
C2840      F2841   1.358       .  S
C2845      C2846   1.406       .  A
C2845      C2850   1.393       .  A
C2845      F2852   1.358       .  S
C2846      C2847   1.405   1_565  A
C2847      C2848   1.403       .  A
C2847      F2854   1.357       .  S
C2848      C2849   1.406   1_545  A
C2848      F2853   1.357       .  S
C2849      C2850   1.401       .  A
C2850      F2851   1.358       .  S
C2855      C2856   1.418       .  A
C2855      C2860   1.409       .  A
C2855      F2862   1.355       .  S
C2856      C2857   1.420       .  A
C2857      C2858   1.385   1_565  A
C2857      F2864   1.352   1_565  S
C2858      C2859   1.394   1_545  A
C2858      F2863   1.358       .  S
C2859      C2860   1.404       .  A
C2860      F2861   1.357       .  S
C2865      C2866   1.401       .  A
C2865      C2870   1.394       .  A
C2865      F2872   1.358       .  S
C2866      C2867   1.407   1_545  A
C2867      C2868   1.403       .  A
C2867      F2874   1.356       .  S
C2868      C2869   1.405   1_565  A
C2868      F2873   1.357       .  S
C2869      C2870   1.408       .  A
C2870      F2871   1.358       .  S
C2875      C2876   1.419       .  A
C2875      C2880   1.405       .  A
C2875      F2882   1.352       .  S
C2876      C2877   1.427       .  A
C2877      C2878   1.397       .  A
C2877      F2884   1.338       .  S
C2878      C2879   1.391       .  A
C2878      F2883   1.359       .  S
C2879      C2880   1.398       .  A
C2880      F2881   1.357       .  S
C2885      C2886   1.402       .  A
C2885      C2890   1.393       .  A
C2885      F2892   1.358       .  S
C2886      C2887   1.406       .  A
C2887      C2888   1.407       .  A
C2887      F2894   1.357       .  S
C2888      C2889   1.408       .  A
C2888      F2893   1.357       .  S
C2889      C2890   1.408       .  A
C2890      F2891   1.358       .  S
C2895      C2896   1.407       .  A
C2895      C2900   1.406       .  A
C2895      F2902   1.357       .  S
C2896      C2897   1.410       .  A
C2897      C2898   1.396       .  A
C2897      F2904   1.358       .  S
C2898      C2899   1.401       .  A
C2898      F2903   1.358       .  S
C2899      C2900   1.407       .  A
C2900      F2901   1.357       .  S
C2905      C2906   1.409       .  A
C2905      C2910   1.396       .  A
C2905      F2912   1.358       .  S
C2906      C2907   1.406       .  A
C2907      C2908   1.407       .  A
C2907      F2914   1.357       .  S
C2908      C2909   1.407       .  A
C2908      F2913   1.357       .  S
C2909      C2910   1.401       .  A
C2910      F2911   1.358       .  S
C2915      C2916   1.409       .  A
C2915      C2920   1.404       .  A
C2915      F2922   1.355       .  S
C2916      C2917   1.402       .  A
C2917      C2918   1.397       .  A
C2917      F2924   1.358       .  S
C2918      C2919   1.409       .  A
C2918      F2923   1.358       .  S
C2919      C2920   1.405       .  A
C2920      F2921   1.357       .  S
C2925      C2926   1.409       .  A
C2925      C2930   1.392       .  A
C2925      F2932   1.358       .  S
C2926      C2927   1.407       .  A
C2927      C2928   1.404       .  A
C2927      F2934   1.357       .  S
C2928      C2929   1.405       .  A
C2928      F2933   1.357       .  S
C2929      C2930   1.400       .  A
C2930      F2931   1.358       .  S
C2935      C2936   1.405       .  A
C2935      C2940   1.394       .  A
C2935      F2942   1.358       .  S
C2936      C2937   1.407       .  A
C2937      C2938   1.406       .  A
C2937      F2944   1.357       .  S
C2938      C2939   1.407       .  A
C2938      F2943   1.357       .  S
C2939      C2940   1.406       .  A
C2940      F2941   1.358       .  S
C2945      C2946   1.408       .  A
C2945      C2950   1.406       .  A
C2945      F2952   1.357       .  S
C2946      C2947   1.409       .  A
C2947      C2948   1.393       .  A
C2947      F2954   1.358       .  S
C2948      C2949   1.401       .  A
C2948      F2953   1.358       .  S
C2949      C2950   1.406       .  A
C2950      F2951   1.357       .  S
C2955      C2956   1.406       .  A
C2955      C2960   1.395       .  A
C2955      F2962   1.358       .  S
C2956      C2957   1.406       .  A
C2957      C2958   1.405       .  A
C2957      F2964   1.357       .  S
C2958      C2959   1.406       .  A
C2958      F2963   1.357       .  S
C2959      C2960   1.403       .  A
C2960      F2961   1.358       .  S
C2965      C2966   1.407       .  A
C2965      C2970   1.407       .  A
C2965      F2972   1.357   1_554  S
C2966      C2967   1.410       .  A
C2967      C2968   1.397       .  A
C2967      F2974   1.358       .  S
C2968      C2969   1.401       .  A
C2968      F2973   1.358       .  S
C2969      C2970   1.407       .  A
C2970      F2971   1.357   1_554  S
C2975      C2976   1.401       .  A
C2975      C2980   1.394       .  A
C2975      F2982   1.358       .  S
C2976      C2977   1.407       .  A
C2977      C2978   1.405       .  A
C2977      F2984   1.356   1_455  S
C2978      C2979   1.406       .  A
C2978      F2983   1.357       .  S
C2979      C2980   1.408       .  A
C2980      F2981   1.358       .  S
C2985      C2986   1.405       .  A
C2985      C2990   1.402       .  A
C2985      F2992   1.356       .  S
C2986      C2987   1.401       .  A
C2987      C2988   1.393       .  A
C2987      F2994   1.358       .  S
C2988      C2989   1.407       .  A
C2988      F2993   1.358       .  S
C2989      C2990   1.406       .  A
C2990      F2991   1.357       .  S
C2995      C2996   1.410       .  A
C2995      C3000   1.393       .  A
C2995      F3002   1.358       .  S
C2996      C2997   1.409       .  A
C2997      C2998   1.407       .  A
C2997      F3004   1.357       .  S
C2998      C2999   1.406       .  A
C2998      F3003   1.357       .  S
C2999      C3000   1.401       .  A
C3000      F3001   1.358       .  S
C3005      C3006   1.410       .  A
C3005      C3010   1.409       .  A
C3005      F3012   1.357       .  S
C3006      C3007   1.412       .  A
C3007      C3008   1.395       .  A
C3007      F3014   1.357       .  S
C3008      C3009   1.402       .  A
C3008      F3013   1.358       .  S
C3009      C3010   1.408       .  A
C3010      F3011   1.356       .  S
C3015      C3016   1.407       .  A
C3015      C3020   1.403       .  A
C3015      F3022   1.357       .  S
C3016      C3017   1.402       .  A
C3017      C3018   1.395       .  A
C3017      F3024   1.358   1_655  S
C3018      C3019   1.405       .  A
C3018      F3023   1.358   1_655  S
C3019      C3020   1.404       .  A
C3020      F3021   1.357       .  S
C3025      C3026   1.404       .  A
C3025      C3030   1.400       .  A
C3025      F3032   1.357       .  S
C3026      C3027   1.406       .  A
C3027      C3028   1.393       .  A
C3027      F3034   1.358       .  S
C3028      C3029   1.401       .  A
C3028      F3033   1.358       .  S
C3029      C3030   1.405       .  A
C3030      F3031   1.356       .  S
C3035      C3036   1.405       .  A
C3035      C3040   1.404       .  A
C3035      F3042   1.356       .  S
C3036      C3037   1.400   1_455  A
C3037      C3038   1.394   1_655  A
C3037      F3044   1.358       .  S
C3038      C3039   1.410       .  A
C3038      F3043   1.358   1_455  S
C3039      C3040   1.408       .  A
C3040      F3041   1.357       .  S
C3045      C3046   1.405       .  A
C3045      C3050   1.405       .  A
C3045      F3052   1.357       .  S
C3046      C3047   1.399       .  A
C3047      C3048   1.391       .  A
C3047      F3054   1.359       .  S
C3048      C3049   1.409       .  A
C3048      F3053   1.358       .  S
C3049      C3050   1.408       .  A
C3050      F3051   1.357       .  S
C3055      C3056   1.403       .  A
C3055      C3060   1.401       .  A
C3055      F3062   1.357       .  S
C3056      C3057   1.400       .  A
C3057      C3058   1.389       .  A
C3057      F3064   1.358       .  S
C3058      C3059   1.405       .  A
C3058      F3063   1.358       .  S
C3059      C3060   1.405       .  A
C3060      F3061   1.357       .  S
C3065      C3066   1.406       .  A
C3065      C3070   1.405       .  A
C3065      F3072   1.357       .  S
C3066      C3067   1.407       .  A
C3067      C3068   1.397       .  A
C3067      F3074   1.358       .  S
C3068      C3069   1.403       .  A
C3068      F3073   1.358       .  S
C3069      C3070   1.407       .  A
C3070      F3071   1.357       .  S
C3075      C3076   1.407       .  A
C3075      C3080   1.394       .  A
C3075      F3082   1.358       .  S
C3076      C3077   1.406       .  A
C3077      C3078   1.405       .  A
C3077      F3084   1.357       .  S
C3078      C3079   1.407       .  A
C3078      F3083   1.356       .  S
C3079      C3080   1.402       .  A
C3080      F3081   1.358       .  S
C3085      C3086   1.410       .  A
C3085      C3090   1.407       .  A
C3085      F3092   1.357       .  S
C3086      C3087   1.409       .  A
C3087      C3088   1.388   1_545  A
C3087      F3094   1.357   1_545  S
C3088      C3089   1.403   1_565  A
C3088      F3093   1.358       .  S
C3089      C3090   1.406       .  A
C3090      F3091   1.357       .  S
C3095      C3096   1.409       .  A
C3095      C3100   1.409       .  A
C3095      F3102   1.357       .  S
C3096      C3097   1.411       .  A
C3097      C3098   1.396       .  A
C3097      F3104   1.358       .  S
C3098      C3099   1.402       .  A
C3098      F3103   1.358       .  S
C3099      C3100   1.408       .  A
C3100      F3101   1.357       .  S
C3105      C3106   1.405       .  A
C3105      C3110   1.402       .  A
C3105      F3112   1.357       .  S
C3106      C3107   1.406       .  A
C3107      C3108   1.395       .  A
C3107      F3114   1.358       .  S
C3108      C3109   1.403       .  A
C3108      F3113   1.358       .  S
C3109      C3110   1.406       .  A
C3110      F3111   1.356       .  S
C3115      C3116   1.408       .  A
C3115      C3120   1.394       .  A
C3115      F3122   1.358       .  S
C3116      C3117   1.406       .  A
C3117      C3118   1.404       .  A
C3117      F3124   1.357       .  S
C3118      C3119   1.407       .  A
C3118      F3123   1.356       .  S
C3119      C3120   1.401       .  A
C3120      F3121   1.358       .  S
C3125      C3126   1.408       .  A
C3125      C3130   1.406       .  A
C3125      F3132   1.356       .  S
C3126      C3127   1.401       .  A
C3127      C3128   1.394       .  A
C3127      F3134   1.358       .  S
C3128      C3129   1.409       .  A
C3128      F3133   1.358       .  S
C3129      C3130   1.406       .  A
C3130      F3131   1.357       .  S
C3135      C3136   1.401       .  A
C3135      C3140   1.393       .  A
C3135      F3142   1.358       .  S
C3136      C3137   1.404       .  A
C3137      C3138   1.403       .  A
C3137      F3144   1.357       .  S
C3138      C3139   1.406       .  A
C3138      F3143   1.357       .  S
C3139      C3140   1.407       .  A
C3140      F3141   1.358       .  S
C3145      C3146   1.406       .  A
C3145      C3150   1.407       .  A
C3145      F3152   1.357       .  S
C3146      C3147   1.400       .  A
C3147      C3148   1.393       .  A
C3147      F3154   1.358       .  S
C3148      C3149   1.409       .  A
C3148      F3153   1.358       .  S
C3149      C3150   1.407       .  A
C3150      F3151   1.357       .  S
C3155      C3156   1.403       .  A
C3155      C3160   1.402       .  A
C3155      F3162   1.358       .  S
C3156      C3157   1.406       .  A
C3157      C3158   1.397       .  A
C3157      F3164   1.358       .  S
C3158      C3159   1.403       .  A
C3158      F3163   1.358       .  S
C3159      C3160   1.410       .  A
C3160      F3161   1.356       .  S
C3165      C3166   1.407       .  A
C3165      C3170   1.406       .  A
C3165      F3172   1.357       .  S
C3166      C3167   1.407       .  A
C3167      C3168   1.393       .  A
C3167      F3174   1.358       .  S
C3168      C3169   1.401       .  A
C3168      F3173   1.358       .  S
C3169      C3170   1.406       .  A
C3170      F3171   1.357       .  S
C3175      C3176   1.405       .  A
C3175      C3180   1.403       .  A
C3175      F3182   1.357       .  S
C3176      C3177   1.401       .  A
C3177      C3178   1.392       .  A
C3177      F3184   1.358       .  S
C3178      C3179   1.406       .  A
C3178      F3183   1.358       .  S
C3179      C3180   1.405       .  A
C3180      F3181   1.357       .  S
C3185      C3186   1.408       .  A
C3185      C3190   1.404       .  A
C3185      F3192   1.357       .  S
C3186      C3187   1.403       .  A
C3187      C3188   1.395       .  A
C3187      F3194   1.358       .  S
C3188      C3189   1.405       .  A
C3188      F3193   1.358       .  S
C3189      C3190   1.404       .  A
C3190      F3191   1.357       .  S
C3195      C3196   1.401       .  A
C3195      C3200   1.395       .  A
C3195      F3202   1.358       .  S
C3196      C3197   1.407       .  A
C3197      C3198   1.406       .  A
C3197      F3204   1.357       .  S
C3198      C3199   1.408       .  A
C3198      F3203   1.357       .  S
C3199      C3200   1.410       .  A
C3200      F3201   1.358       .  S
C3205      C3206   1.406       .  A
C3205      C3210   1.403       .  A
C3205      F3212   1.357       .  S
C3206      C3207   1.401       .  A
C3207      C3208   1.394       .  A
C3207      F3214   1.358       .  S
C3208      C3209   1.407       .  A
C3208      F3213   1.358       .  S
C3209      C3210   1.405       .  A
C3210      F3211   1.357       .  S
C3215      C3216   1.406       .  A
C3215      C3220   1.405       .  A
C3215      F3222   1.356       .  S
C3216      C3217   1.401   1_455  A
C3217      C3218   1.395   1_655  A
C3217      F3224   1.358       .  S
C3218      C3219   1.408       .  A
C3218      F3223   1.358   1_455  S
C3219      C3220   1.407       .  A
C3220      F3221   1.357       .  S
C3225      C3226   1.405       .  A
C3225      C3230   1.402       .  A
C3225      F3232   1.357       .  S
C3226      C3227   1.408       .  A
C3227      C3228   1.394       .  A
C3227      F3234   1.358       .  S
C3228      C3229   1.402       .  A
C3228      F3233   1.358       .  S
C3229      C3230   1.407       .  A
C3230      F3231   1.356       .  S
C3235      C3236   1.406       .  A
C3235      C3240   1.408       .  A
C3235      F3242   1.357       .  S
C3236      C3237   1.401       .  A
C3237      C3238   1.393       .  A
C3237      F3244   1.359       .  S
C3238      C3239   1.408       .  A
C3238      F3243   1.358       .  S
C3239      C3240   1.409       .  A
C3240      F3241   1.357       .  S
C3245      C3246   1.404       .  A
C3245      C3250   1.414       .  A
C3245      F3252   1.357       .  S
C3246      C3247   1.399       .  A
C3247      C3248   1.389       .  A
C3247      F3254   1.359       .  S
C3248      C3249   1.417       .  A
C3248      F3253   1.347       .  S
C3249      C3250   1.423       .  A
C3250      F3251   1.351       .  S
C3255      C3256   1.410       .  A
C3255      C3260   1.405       .  A
C3255      F3262   1.356       .  S
C3256      C3257   1.414       .  A
C3257      C3258   1.397       .  A
C3257      F3264   1.357       .  S
C3258      C3259   1.401       .  A
C3258      F3263   1.358       .  S
C3259      C3260   1.408       .  A
C3260      F3261   1.355       .  S
C3265      C3266   1.408       .  A
C3265      C3270   1.407       .  A
C3265      F3272   1.357       .  S
C3266      C3267   1.408       .  A
C3267      C3268   1.392       .  A
C3267      F3274   1.358       .  S
C3268      C3269   1.399       .  A
C3268      F3273   1.358       .  S
C3269      C3270   1.413       .  A
C3270      F3271   1.357       .  S
C3275      C3276   1.401       .  A
C3275      C3280   1.395       .  A
C3275      F3282   1.358       .  S
C3276      C3277   1.405       .  A
C3277      C3278   1.402       .  A
C3277      F3284   1.356       .  S
C3278      C3279   1.406       .  A
C3278      F3283   1.357       .  S
C3279      C3280   1.407       .  A
C3280      F3281   1.358       .  S
C3285      C3286   1.408       .  A
C3285      C3290   1.406       .  A
C3285      F3292   1.357       .  S
C3286      C3287   1.409       .  A
C3287      C3288   1.394       .  A
C3287      F3294   1.358       .  S
C3288      C3289   1.400       .  A
C3288      F3293   1.358       .  S
C3289      C3290   1.405       .  A
C3290      F3291   1.357   1_455  S
C3295      C3296   1.402       .  A
C3295      C3300   1.396       .  A
C3295      F3302   1.358       .  S
C3296      C3297   1.408       .  A
C3297      C3298   1.404       .  A
C3297      F3304   1.355       .  S
C3298      C3299   1.405       .  A
C3298      F3303   1.357       .  S
C3299      C3300   1.406       .  A
C3300      F3301   1.358       .  S
C3305      C3306   1.402       .  A
C3305      C3310   1.395       .  A
C3305      F3312   1.359       .  S
C3306      C3307   1.406       .  A
C3307      C3308   1.408       .  A
C3307      F3314   1.357       .  S
C3308      C3309   1.408       .  A
C3308      F3313   1.357       .  S
C3309      C3310   1.409       .  A
C3310      F3311   1.358       .  S
C3315      C3316   1.409       .  A
C3315      C3320   1.392       .  A
C3315      F3322   1.358       .  S
C3316      C3317   1.408       .  A
C3317      C3318   1.406       .  A
C3317      F3324   1.357       .  S
C3318      C3319   1.406       .  A
C3318      F3323   1.357       .  S
C3319      C3320   1.400       .  A
C3320      F3321   1.358       .  S
C3325      C3326   1.405       .  A
C3325      C3330   1.397       .  A
C3325      F3332   1.358       .  S
C3326      C3327   1.402       .  A
C3327      C3328   1.400       .  A
C3327      F3334   1.358       .  S
C3328      C3329   1.410       .  A
C3328      F3333   1.355       .  S
C3329      C3330   1.404       .  A
C3330      F3331   1.358       .  S
C3335      C3336   1.405       .  A
C3335      C3340   1.404       .  A
C3335      F3342   1.357       .  S
C3336      C3337   1.407       .  A
C3337      C3338   1.396       .  A
C3337      F3344   1.358       .  S
C3338      C3339   1.402       .  A
C3338      F3343   1.358       .  S
C3339      C3340   1.407       .  A
C3340      F3341   1.356       .  S
C3345      C3346   1.405       .  A
C3345      C3350   1.404       .  A
C3345      F3352   1.357       .  S
C3346      C3347   1.403       .  A
C3347      C3348   1.393       .  A
C3347      F3354   1.358       .  S
C3348      C3349   1.407       .  A
C3348      F3353   1.357       .  S
C3349      C3350   1.408       .  A
C3350      F3351   1.357       .  S
C3355      C3356   1.403       .  A
C3355      C3360   1.392       .  A
C3355      F3362   1.358       .  S
C3356      C3357   1.404       .  A
C3357      C3358   1.401       .  A
C3357      F3364   1.358       .  S
C3358      C3359   1.406       .  A
C3358      F3363   1.357       .  S
C3359      C3360   1.402       .  A
C3360      F3361   1.358       .  S
C3365      C3366   1.404       .  A
C3365      C3370   1.401       .  A
C3365      F3372   1.357       .  S
C3366      C3367   1.405       .  A
C3367      C3368   1.392       .  A
C3367      F3374   1.358       .  S
C3368      C3369   1.401       .  A
C3368      F3373   1.358       .  S
C3369      C3370   1.406       .  A
C3370      F3371   1.357       .  S
C3375      C3376   1.415       .  A
C3375      C3380   1.395       .  A
C3375      F3382   1.354       .  S
C3376      C3377   1.412       .  A
C3377      C3378   1.406       .  A
C3377      F3384   1.355       .  S
C3378      C3379   1.411       .  A
C3378      F3383   1.349       .  S
C3379      C3380   1.405       .  A
C3380      F3381   1.356       .  S
C3385      C3386   1.405       .  A
C3385      C3390   1.406       .  A
C3385      F3392   1.357       .  S
C3386      C3387   1.400       .  A
C3387      C3388   1.392       .  A
C3387      F3394   1.358       .  S
C3388      C3389   1.409       .  A
C3388      F3393   1.358       .  S
C3389      C3390   1.409       .  A
C3390      F3391   1.357       .  S
C3395      C3396   1.402       .  A
C3395      C3400   1.397       .  A
C3395      F3402   1.358       .  S
C3396      C3397   1.407       .  A
C3397      C3398   1.405       .  A
C3397      F3404   1.356       .  S
C3398      C3399   1.406       .  A
C3398      F3403   1.357       .  S
C3399      C3400   1.408       .  A
C3400      F3401   1.358       .  S
C3405      C3406   1.408       .  A
C3405      C3410   1.406       .  A
C3405      F3412   1.357       .  S
C3406      C3407   1.411       .  A
C3407      C3408   1.395       .  A
C3407      F3414   1.358       .  S
C3408      C3409   1.401       .  A
C3408      F3413   1.358       .  S
C3409      C3410   1.407       .  A
C3410      F3411   1.356   1_556  S
C3415      C3416   1.407       .  A
C3415      C3420   1.399       .  A
C3415      F3422   1.358       .  S
C3416      C3417   1.406       .  A
C3417      C3418   1.408       .  A
C3417      F3424   1.357       .  S
C3418      C3419   1.409       .  A
C3418      F3423   1.356       .  S
C3419      C3420   1.405       .  A
C3420      F3421   1.358   1_556  S
C3425      C3426   1.406       .  A
C3425      C3430   1.406       .  A
C3425      F3432   1.357       .  S
C3426      C3427   1.408       .  A
C3427      C3428   1.394       .  A
C3427      F3434   1.358       .  S
C3428      C3429   1.401       .  A
C3428      F3433   1.358       .  S
C3429      C3430   1.407       .  A
C3430      F3431   1.356       .  S
C3435      C3436   1.411       .  A
C3435      C3440   1.403       .  A
C3435      F3442   1.357       .  S
C3436      C3437   1.401       .  A
C3437      C3438   1.394       .  A
C3437      F3444   1.358       .  S
C3438      C3439   1.409       .  A
C3438      F3443   1.358       .  S
C3439      C3440   1.405       .  A
C3440      F3441   1.357       .  S
C3445      C3446   1.400       .  A
C3445      C3450   1.395       .  A
C3445      F3452   1.358       .  S
C3446      C3447   1.406       .  A
C3447      C3448   1.408       .  A
C3447      F3454   1.357       .  S
C3448      C3449   1.408       .  A
C3448      F3453   1.357       .  S
C3449      C3450   1.410       .  A
C3450      F3451   1.358       .  S
C3455      C3456   1.400       .  A
C3455      C3460   1.391       .  A
C3455      F3462   1.358       .  S
C3456      C3457   1.404       .  A
C3457      C3458   1.403       .  A
C3457      F3464   1.357       .  S
C3458      C3459   1.406       .  A
C3458      F3463   1.357       .  S
C3459      C3460   1.407       .  A
C3460      F3461   1.358       .  S
C3465      C3466   1.400       .  A
C3465      C3470   1.394       .  A
C3465      F3472   1.358       .  S
C3466      C3467   1.406       .  A
C3467      C3468   1.405       .  A
C3467      F3474   1.357   1_455  S
C3468      C3469   1.407       .  A
C3468      F3473   1.357       .  S
C3469      C3470   1.408       .  A
C3470      F3471   1.358       .  S
C3475      C3476   1.408       .  A
C3475      C3480   1.395       .  A
C3475      F3482   1.358       .  S
C3476      C3477   1.406       .  A
C3477      C3478   1.405       .  A
C3477      F3484   1.357       .  S
C3478      C3479   1.406       .  A
C3478      F3483   1.357       .  S
C3479      C3480   1.401       .  A
C3480      F3481   1.358       .  S
C3485      C3486   1.407       .  A
C3485      C3490   1.392       .  A
C3485      F3492   1.358       .  S
C3486      C3487   1.406       .  A
C3487      C3488   1.404       .  A
C3487      F3494   1.357       .  S
C3488      C3489   1.404       .  A
C3488      F3493   1.357       .  S
C3489      C3490   1.401       .  A
C3490      F3491   1.358   1_455  S
C3495      C3496   1.400       .  A
C3495      C3500   1.392       .  A
C3495      F3502   1.358       .  S
C3496      C3497   1.406       .  A
C3497      C3498   1.404       .  A
C3497      F3504   1.356       .  S
C3498      C3499   1.407       .  A
C3498      F3503   1.357       .  S
C3499      C3500   1.409       .  A
C3500      F3501   1.358       .  S
C3505      C3506   1.408       .  A
C3505      C3510   1.392       .  A
C3505      F3512   1.358       .  S
C3506      C3507   1.408       .  A
C3507      C3508   1.405       .  A
C3507      F3514   1.357       .  S
C3508      C3509   1.405       .  A
C3508      F3513   1.357       .  S
C3509      C3510   1.400       .  A
C3510      F3511   1.358       .  S
C3515      C3516   1.402       .  A
C3515      C3520   1.394       .  A
C3515      F3522   1.358   1_556  S
C3516      C3517   1.405       .  A
C3517      C3518   1.405       .  A
C3517      F3524   1.357   1_455  S
C3518      C3519   1.406       .  A
C3518      F3523   1.357       .  S
C3519      C3520   1.407       .  A
C3520      F3521   1.358       .  S
C3525      C3526   1.401   1_655  A
C3525      C3530   1.395   1_655  A
C3525      F3532   1.358       .  S
C3526      C3527   1.408       .  A
C3527      C3528   1.409       .  A
C3527      F3534   1.357       .  S
C3528      C3529   1.409       .  A
C3528      F3533   1.357       .  S
C3529      C3530   1.412       .  A
C3530      F3531   1.358   1_455  S
C3535      C3536   1.402       .  A
C3535      C3540   1.394       .  A
C3535      F3542   1.358       .  S
C3536      C3537   1.405       .  A
C3537      C3538   1.403       .  A
C3537      F3544   1.357   1_554  S
C3538      C3539   1.405       .  A
C3538      F3543   1.357   1_554  S
C3539      C3540   1.406       .  A
C3540      F3541   1.358       .  S
C3545      C3546   1.404       .  A
C3545      C3550   1.401       .  A
C3545      F3552   1.357       .  S
C3546      C3547   1.405       .  A
C3547      C3548   1.393       .  A
C3547      F3554   1.358   1_655  S
C3548      C3549   1.402       .  A
C3548      F3553   1.358   1_656  S
C3549      C3550   1.406       .  A
C3550      F3551   1.357       .  S
C3555      C3556   1.406   1_545  A
C3555      C3560   1.394       .  A
C3555      F3562   1.358       .  S
C3556      C3557   1.404       .  A
C3557      C3558   1.403       .  A
C3557      F3564   1.357       .  S
C3558      C3559   1.407       .  A
C3558      F3563   1.357       .  S
C3559      C3560   1.402   1_565  A
C3560      F3561   1.358       .  S
C3565      C3566   1.404       .  A
C3565      C3570   1.402       .  A
C3565      F3572   1.357   1_554  S
C3566      C3567   1.405       .  A
C3567      C3568   1.395       .  A
C3567      F3574   1.358       .  S
C3568      C3569   1.402       .  A
C3568      F3573   1.358       .  S
C3569      C3570   1.407       .  A
C3570      F3571   1.356   1_554  S
C3575      C3576   1.408       .  A
C3575      C3580   1.406       .  A
C3575      F3582   1.356       .  S
C3576      C3577   1.404       .  A
C3577      C3578   1.397       .  A
C3577      F3584   1.358   1_556  S
C3578      C3579   1.406       .  A
C3578      F3583   1.358       .  S
C3579      C3580   1.405       .  A
C3580      F3581   1.357       .  S
C3585      C3586   1.408       .  A
C3585      C3590   1.390       .  A
C3585      F3592   1.358       .  S
C3586      C3587   1.409       .  A
C3587      C3588   1.403       .  A
C3587      F3594   1.357       .  S
C3588      C3589   1.404       .  A
C3588      F3593   1.357       .  S
C3589      C3590   1.400       .  A
C3590      F3591   1.359       .  S
C3595      C3596   1.406       .  A
C3595      C3600   1.393       .  A
C3595      F3602   1.358       .  S
C3596      C3597   1.406       .  A
C3597      C3598   1.403       .  A
C3597      F3604   1.357       .  S
C3598      C3599   1.404       .  A
C3598      F3603   1.357       .  S
C3599      C3600   1.401       .  A
C3600      F3601   1.358       .  S
C3605      C3606   1.407       .  A
C3605      C3610   1.403       .  A
C3605      F3612   1.357       .  S
C3606      C3607   1.406       .  A
C3607      C3608   1.394       .  A
C3607      F3614   1.357   1_655  S
C3608      C3609   1.405       .  A
C3608      F3613   1.358   1_655  S
C3609      C3610   1.405       .  A
C3610      F3611   1.357       .  S
C3615      C3616   1.403   1_655  A
C3615      C3620   1.398   1_655  A
C3615      F3622   1.358       .  S
C3616      C3617   1.412       .  A
C3617      C3618   1.405       .  A
C3617      F3624   1.357       .  S
C3618      C3619   1.406       .  A
C3618      F3623   1.357       .  S
C3619      C3620   1.412       .  A
C3620      F3621   1.358   1_455  S
C3625      C3626   1.405       .  A
C3625      C3630   1.395       .  A
C3625      F3632   1.358       .  S
C3626      C3627   1.405       .  A
C3627      C3628   1.405       .  A
C3627      F3634   1.357   1_655  S
C3628      C3629   1.408       .  A
C3628      F3633   1.357   1_655  S
C3629      C3630   1.407       .  A
C3630      F3631   1.357       .  S
C3635      C3636   1.408       .  A
C3635      C3640   1.393       .  A
C3635      F3642   1.358       .  S
C3636      C3637   1.408       .  A
C3637      C3638   1.406       .  A
C3637      F3644   1.357       .  S
C3638      C3639   1.405       .  A
C3638      F3643   1.357       .  S
C3639      C3640   1.401       .  A
C3640      F3641   1.358       .  S
C3645      C3646   1.400   1_655  A
C3645      C3650   1.391   1_655  A
C3645      F3652   1.359       .  S
C3646      C3647   1.405   1_565  A
C3647      C3648   1.405       .  A
C3647      F3654   1.357       .  S
C3648      C3649   1.409   1_545  A
C3648      F3653   1.357       .  S
C3649      C3650   1.409       .  A
C3650      F3651   1.358   1_455  S
C3655      C3656   1.405       .  A
C3655      C3660   1.392       .  A
C3655      F3662   1.358       .  S
C3656      C3657   1.405       .  A
C3657      C3658   1.402       .  A
C3657      F3664   1.357       .  S
C3658      C3659   1.406       .  A
C3658      F3663   1.356       .  S
C3659      C3660   1.401       .  A
C3660      F3661   1.358       .  S
C3665      C3666   1.401       .  A
C3665      C3670   1.393       .  A
C3665      F3672   1.358       .  S
C3666      C3667   1.405       .  A
C3667      C3668   1.406       .  A
C3667      F3674   1.357       .  S
C3668      C3669   1.408       .  A
C3668      F3673   1.357       .  S
C3669      C3670   1.408       .  A
C3670      F3671   1.358       .  S
C3675      C3676   1.410   1_565  A
C3675      C3680   1.395       .  A
C3675      F3682   1.358       .  S
C3676      C3677   1.407       .  A
C3677      C3678   1.407       .  A
C3677      F3684   1.357       .  S
C3678      C3679   1.408       .  A
C3678      F3683   1.356       .  S
C3679      C3680   1.401   1_545  A
C3680      F3681   1.358       .  S
C3685      C3686   1.408       .  A
C3685      C3690   1.404       .  A
C3685      F3692   1.357       .  S
C3686      C3687   1.406       .  A
C3687      C3688   1.391       .  A
C3687      F3694   1.358       .  S
C3688      C3689   1.401       .  A
C3688      F3693   1.358       .  S
C3689      C3690   1.404       .  A
C3690      F3691   1.357       .  S
C3695      C3696   1.400       .  A
C3695      C3700   1.391       .  A
C3695      F3702   1.358   1_554  S
C3696      C3697   1.406       .  A
C3697      C3698   1.406       .  A
C3697      F3704   1.357       .  S
C3698      C3699   1.408       .  A
C3698      F3703   1.357       .  S
C3699      C3700   1.409       .  A
C3700      F3701   1.358   1_554  S
C3705      C3706   1.409       .  A
C3705      C3710   1.405       .  A
C3705      F3712   1.357       .  S
C3706      C3707   1.409       .  A
C3707      C3708   1.391       .  A
C3707      F3714   1.358       .  S
C3708      C3709   1.399       .  A
C3708      F3713   1.359       .  S
C3709      C3710   1.405       .  A
C3710      F3711   1.357       .  S
C3715      C3716   1.399       .  A
C3715      C3720   1.389       .  A
C3715      F3722   1.358       .  S
C3716      C3717   1.404       .  A
C3717      C3718   1.402       .  A
C3717      F3724   1.357   1_554  S
C3718      C3719   1.407       .  A
C3718      F3723   1.357   1_554  S
C3719      C3720   1.407       .  A
C3720      F3721   1.358       .  S
C3725      C3726   1.406       .  A
C3725      C3730   1.392       .  A
C3725      F3732   1.358       .  S
C3726      C3727   1.405       .  A
C3727      C3728   1.401       .  A
C3727      F3734   1.357       .  S
C3728      C3729   1.405       .  A
C3728      F3733   1.357       .  S
C3729      C3730   1.401       .  A
C3730      F3731   1.358       .  S
C3735      C3736   1.406       .  A
C3735      C3740   1.402       .  A
C3735      F3742   1.357       .  S
C3736      C3737   1.402   1_554  A
C3737      C3738   1.392       .  A
C3737      F3744   1.358       .  S
C3738      C3739   1.404   1_556  A
C3738      F3743   1.358       .  S
C3739      C3740   1.404       .  A
C3740      F3741   1.357       .  S
C3745      C3746   1.404       .  A
C3745      C3750   1.401       .  A
C3745      F3752   1.357       .  S
C3746      C3747   1.403   1_554  A
C3747      C3748   1.392   1_556  A
C3747      F3754   1.358       .  S
C3748      C3749   1.406       .  A
C3748      F3753   1.358   1_554  S
C3749      C3750   1.406       .  A
C3750      F3751   1.357       .  S
C3755      C3756   1.398       .  A
C3755      C3760   1.392       .  A
C3755      F3762   1.359       .  S
C3756      C3757   1.402       .  A
C3757      C3758   1.414       .  A
C3757      F3764   1.357       .  S
C3758      C3759   1.427       .  A
C3758      F3763   1.349       .  S
C3759      C3760   1.418       .  A
C3760      F3761   1.348       .  S
C3765      C3766   1.406       .  A
C3765      C3770   1.403       .  A
C3765      F3772   1.357       .  S
C3766      C3767   1.410   1_545  A
C3767      C3768   1.393       .  A
C3767      F3774   1.358       .  S
C3768      C3769   1.403   1_565  A
C3768      F3773   1.358       .  S
C3769      C3770   1.407       .  A
C3770      F3771   1.357       .  S
C3775      C3776   1.401   1_545  A
C3775      C3780   1.397       .  A
C3775      F3782   1.358   1_556  S
C3776      C3777   1.409       .  A
C3777      C3778   1.407       .  A
C3777      F3784   1.357       .  S
C3778      C3779   1.409       .  A
C3778      F3783   1.357       .  S
C3779      C3780   1.412   1_565  A
C3780      F3781   1.357       .  S
C3785      C3786   1.408   1_545  A
C3785      C3790   1.405       .  A
C3785      F3792   1.357       .  S
C3786      C3787   1.405       .  A
C3787      C3788   1.393       .  A
C3787      F3794   1.358       .  S
C3788      C3789   1.405       .  A
C3788      F3793   1.358       .  S
C3789      C3790   1.406   1_565  A
C3790      F3791   1.357       .  S
C3795      C3796   1.402       .  A
C3795      C3800   1.394       .  A
C3795      F3802   1.358       .  S
C3796      C3797   1.406       .  A
C3797      C3798   1.406       .  A
C3797      F3804   1.357       .  S
C3798      C3799   1.407       .  A
C3798      F3803   1.357       .  S
C3799      C3800   1.407       .  A
C3800      F3801   1.358       .  S
C3805      C3806   1.417       .  A
C3805      C3810   1.393       .  A
C3805      F3812   1.350       .  S
C3806      C3807   1.423       .  A
C3807      C3808   1.408       .  A
C3807      F3814   1.350       .  S
C3808      C3809   1.400       .  A
C3808      F3813   1.357       .  S
C3809      C3810   1.397       .  A
C3810      F3811   1.359       .  S
C3815      C3816   1.404       .  A
C3815      C3820   1.396       .  A
C3815      F3822   1.358   1_545  S
C3816      C3817   1.409       .  A
C3817      C3818   1.406       .  A
C3817      F3824   1.357       .  S
C3818      C3819   1.408       .  A
C3818      F3823   1.357       .  S
C3819      C3820   1.412       .  A
C3820      F3821   1.358       .  S
C3825      C3826   1.411       .  A
C3825      C3830   1.397       .  A
C3825      F3832   1.358       .  S
C3826      C3827   1.408       .  A
C3827      C3828   1.407       .  A
C3827      F3834   1.357       .  S
C3828      C3829   1.408       .  A
C3828      F3833   1.356       .  S
C3829      C3830   1.401       .  A
C3830      F3831   1.358       .  S
C3835      C3836   1.409       .  A
C3835      C3840   1.407       .  A
C3835      F3842   1.357       .  S
C3836      C3837   1.404       .  A
C3837      C3838   1.398       .  A
C3837      F3844   1.357       .  S
C3838      C3839   1.406       .  A
C3838      F3843   1.358       .  S
C3839      C3840   1.406       .  A
C3840      F3841   1.357       .  S
C3845      C3846   1.408       .  A
C3845      C3850   1.398       .  A
C3845      F3852   1.358       .  S
C3846      C3847   1.407       .  A
C3847      C3848   1.408       .  A
C3847      F3854   1.357       .  S
C3848      C3849   1.408       .  A
C3848      F3853   1.356       .  S
C3849      C3850   1.403       .  A
C3850      F3851   1.358       .  S
C3855      C3856   1.406   1_565  A
C3855      C3860   1.404       .  A
C3855      F3862   1.356       .  S
C3856      C3857   1.401       .  A
C3857      C3858   1.395       .  A
C3857      F3864   1.358       .  S
C3858      C3859   1.409       .  A
C3858      F3863   1.358       .  S
C3859      C3860   1.407   1_545  A
C3860      F3861   1.357       .  S
C3865      C3866   1.404   1_565  A
C3865      C3870   1.403       .  A
C3865      F3872   1.357   1_455  S
C3866      C3867   1.400       .  A
C3867      C3868   1.391       .  A
C3867      F3874   1.358       .  S
C3868      C3869   1.407       .  A
C3868      F3873   1.358       .  S
C3869      C3870   1.405   1_545  A
C3870      F3871   1.357       .  S
C3875      C3876   1.405   1_545  A
C3875      C3880   1.406       .  A
C3875      F3882   1.357       .  S
C3876      C3877   1.400       .  A
C3877      C3878   1.392       .  A
C3877      F3884   1.358       .  S
C3878      C3879   1.408   1_565  A
C3878      F3883   1.358       .  S
C3879      C3880   1.408       .  A
C3880      F3881   1.357       .  S
C3885      C3886   1.404       .  A
C3885      C3890   1.400       .  A
C3885      F3892   1.356       .  S
C3886      C3887   1.400       .  A
C3887      C3888   1.391       .  A
C3887      F3894   1.358       .  S
C3888      C3889   1.406       .  A
C3888      F3893   1.358       .  S
C3889      C3890   1.405       .  A
C3890      F3891   1.357       .  S
C3895      C3896   1.401       .  A
C3895      C3900   1.394       .  A
C3895      F3902   1.358       .  S
C3896      C3897   1.406       .  A
C3897      C3898   1.405       .  A
C3897      F3904   1.356       .  S
C3898      C3899   1.406       .  A
C3898      F3903   1.357       .  S
C3899      C3900   1.407       .  A
C3900      F3901   1.358       .  S
C3905      C3906   1.402       .  A
C3905      C3910   1.395       .  A
C3905      F3912   1.358   1_655  S
C3906      C3907   1.407       .  A
C3907      C3908   1.404       .  A
C3907      F3914   1.356       .  S
C3908      C3909   1.405       .  A
C3908      F3913   1.357       .  S
C3909      C3910   1.406       .  A
C3910      F3911   1.358   1_655  S
C3915      C3916   1.406       .  A
C3915      C3920   1.407       .  A
C3915      F3922   1.357   1_655  S
C3916      C3917   1.408       .  A
C3917      C3918   1.395       .  A
C3917      F3924   1.358       .  S
C3918      C3919   1.402       .  A
C3918      F3923   1.358       .  S
C3919      C3920   1.408       .  A
C3920      F3921   1.357   1_655  S
C3925      C3926   1.407       .  A
C3925      C3930   1.407       .  A
C3925      F3932   1.357       .  S
C3926      C3927   1.408       .  A
C3927      C3928   1.398       .  A
C3927      F3934   1.358   1_655  S
C3928      C3929   1.403       .  A
C3928      F3933   1.358   1_655  S
C3929      C3930   1.408       .  A
C3930      F3931   1.357       .  S
C3935      C3936   1.412       .  A
C3935      C3940   1.395       .  A
C3935      F3942   1.357       .  S
C3936      C3937   1.406       .  A
C3937      C3938   1.400       .  A
C3937      F3944   1.357       .  S
C3938      C3939   1.410       .  A
C3938      F3943   1.357       .  S
C3939      C3940   1.402       .  A
C3940      F3941   1.358       .  S
C3945      C3946   1.410       .  A
C3945      C3950   1.392   1_455  A
C3945      F3952   1.358   1_455  S
C3946      C3947   1.407       .  A
C3947      C3948   1.405       .  A
C3947      F3954   1.357       .  S
C3948      C3949   1.406       .  A
C3948      F3953   1.356       .  S
C3949      C3950   1.399   1_455  A
C3950      F3951   1.359       .  S
C3955      C3956   1.406       .  A
C3955      C3960   1.392       .  A
C3955      F3962   1.358       .  S
C3956      C3957   1.406       .  A
C3957      C3958   1.402       .  A
C3957      F3964   1.357       .  S
C3958      C3959   1.405       .  A
C3958      F3963   1.357       .  S
C3959      C3960   1.400       .  A
C3960      F3961   1.358       .  S
C3965      C3966   1.407       .  A
C3965      C3970   1.404       .  A
C3965      F3972   1.356   1_554  S
C3966      C3967   1.401       .  A
C3967      C3968   1.395       .  A
C3967      F3974   1.358       .  S
C3968      C3969   1.408       .  A
C3968      F3973   1.358       .  S
C3969      C3970   1.406       .  A
C3970      F3971   1.357   1_554  S
C3975      C3976   1.400       .  A
C3975      C3980   1.390       .  A
C3975      F3982   1.358       .  S
C3976      C3977   1.403       .  A
C3977      C3978   1.402       .  A
C3977      F3984   1.357       .  S
C3978      C3979   1.406       .  A
C3978      F3983   1.357       .  S
C3979      C3980   1.407       .  A
C3980      F3981   1.358       .  S
C3985      C3986   1.406       .  A
C3985      C3990   1.405       .  A
C3985      F3992   1.356       .  S
C3986      C3987   1.400       .  A
C3987      C3988   1.393       .  A
C3987      F3994   1.358       .  S
C3988      C3989   1.409       .  A
C3988      F3993   1.358       .  S
C3989      C3990   1.407       .  A
C3990      F3991   1.357       .  S
C3995      C3996   1.406       .  A
C3995      C4000   1.403       .  A
C3995      F4002   1.356       .  S
C3996      C3997   1.401       .  A
C3997      C3998   1.392       .  A
C3997      F4004   1.358       .  S
C3998      C3999   1.406       .  A
C3998      F4003   1.358       .  S
C3999      C4000   1.405       .  A
C4000      F4001   1.357       .  S
C4005      C4006   1.406       .  A
C4005      C4010   1.404       .  A
C4005      F4012   1.357       .  S
C4006      C4007   1.407       .  A
C4007      C4008   1.395       .  A
C4007      F4014   1.358       .  S
C4008      C4009   1.402       .  A
C4008      F4013   1.358       .  S
C4009      C4010   1.406       .  A
C4010      F4011   1.357       .  S
C4015      C4016   1.408       .  A
C4015      C4020   1.392       .  A
C4015      F4022   1.358       .  S
C4016      C4017   1.407       .  A
C4017      C4018   1.403       .  A
C4017      F4024   1.357       .  S
C4018      C4019   1.404       .  A
C4018      F4023   1.356       .  S
C4019      C4020   1.400       .  A
C4020      F4021   1.359       .  S
C4025      C4026   1.408       .  A
C4025      C4030   1.393       .  A
C4025      F4032   1.358       .  S
C4026      C4027   1.407       .  A
C4027      C4028   1.403       .  A
C4027      F4034   1.357       .  S
C4028      C4029   1.405       .  A
C4028      F4033   1.357       .  S
C4029      C4030   1.401       .  A
C4030      F4031   1.358       .  S
C4035      C4036   1.408       .  A
C4035      C4040   1.408       .  A
C4035      F4042   1.357       .  S
C4036      C4037   1.410       .  A
C4037      C4038   1.394       .  A
C4037      F4044   1.358       .  S
C4038      C4039   1.400       .  A
C4038      F4043   1.358       .  S
C4039      C4040   1.407       .  A
C4040      F4041   1.357       .  S
C4045      C4046   1.407       .  A
C4045      C4050   1.397       .  A
C4045      F4052   1.358       .  S
C4046      C4047   1.406       .  A
C4047      C4048   1.406       .  A
C4047      F4054   1.357       .  S
C4048      C4049   1.408       .  A
C4048      F4053   1.356       .  S
C4049      C4050   1.403       .  A
C4050      F4051   1.358       .  S
C4055      C4056   1.409       .  A
C4055      C4060   1.407       .  A
C4055      F4062   1.357       .  S
C4056      C4057   1.412       .  A
C4057      C4058   1.390       .  A
C4057      F4064   1.358       .  S
C4058      C4059   1.398       .  A
C4058      F4063   1.358       .  S
C4059      C4060   1.406       .  A
C4060      F4061   1.357       .  S
C4065      C4066   1.411       .  A
C4065      C4070   1.392       .  A
C4065      F4072   1.358       .  S
C4066      C4067   1.408       .  A
C4067      C4068   1.404       .  A
C4067      F4074   1.357       .  S
C4068      C4069   1.406       .  A
C4068      F4073   1.357       .  S
C4069      C4070   1.399       .  A
C4070      F4071   1.359       .  S
C4075      C4076   1.405       .  A
C4075      C4080   1.406       .  A
C4075      F4082   1.357       .  S
C4076      C4077   1.400       .  A
C4077      C4078   1.392       .  A
C4077      F4084   1.359       .  S
C4078      C4079   1.408       .  A
C4078      F4083   1.358       .  S
C4079      C4080   1.408       .  A
C4080      F4081   1.357       .  S
C4085      C4086   1.408       .  A
C4085      C4090   1.401       .  A
C4085      F4092   1.357       .  S
C4086      C4087   1.402       .  A
C4087      C4088   1.393       .  A
C4087      F4094   1.358       .  S
C4088      C4089   1.409       .  A
C4088      F4093   1.358       .  S
C4089      C4090   1.406       .  A
C4090      F4091   1.357       .  S
C4095      C4096   1.415       .  A
C4095      C4100   1.388       .  A
C4095      F4102   1.351       .  S
C4096      C4097   1.420       .  A
C4097      C4098   1.411       .  A
C4097      F4104   1.351       .  S
C4098      C4099   1.403       .  A
C4098      F4103   1.357       .  S
C4099      C4100   1.398       .  A
C4100      F4101   1.359       .  S
C4105      C4106   1.401       .  A
C4105      C4110   1.397       .  A
C4105      F4112   1.358       .  S
C4106      C4107   1.408       .  A
C4107      C4108   1.405       .  A
C4107      F4114   1.356       .  S
C4108      C4109   1.407       .  A
C4108      F4113   1.357       .  S
C4109      C4110   1.412       .  A
C4110      F4111   1.358       .  S
C4115      C4116   1.406       .  A
C4115      C4120   1.403       .  A
C4115      F4122   1.356       .  S
C4116      C4117   1.402       .  A
C4117      C4118   1.395       .  A
C4117      F4124   1.358       .  S
C4118      C4119   1.408       .  A
C4118      F4123   1.358       .  S
C4119      C4120   1.406       .  A
C4120      F4121   1.357       .  S
C4125      C4126   1.406       .  A
C4125      C4130   1.406       .  A
C4125      F4132   1.357   1_556  S
C4126      C4127   1.401       .  A
C4127      C4128   1.394       .  A
C4127      F4134   1.358       .  S
C4128      C4129   1.411       .  A
C4128      F4133   1.357       .  S
C4129      C4130   1.410       .  A
C4130      F4131   1.357       .  S
C4135      C4136   1.408       .  A
C4135      C4140   1.394       .  A
C4135      F4142   1.358       .  S
C4136      C4137   1.409       .  A
C4137      C4138   1.407       .  A
C4137      F4144   1.357       .  S
C4138      C4139   1.406       .  A
C4138      F4143   1.357       .  S
C4139      C4140   1.403       .  A
C4140      F4141   1.359       .  S
C4145      C4146   1.421       .  A
C4145      C4150   1.410       .  A
C4145      F4152   1.351   1_455  S
C4146      C4147   1.413       .  A
C4147      C4148   1.390       .  A
C4147      F4154   1.352       .  S
C4148      C4149   1.399       .  A
C4148      F4153   1.359       .  S
C4149      C4150   1.402       .  A
C4150      F4151   1.357       .  S
C4155      C4156   1.401       .  A
C4155      C4160   1.394       .  A
C4155      F4162   1.358       .  S
C4156      C4157   1.405       .  A
C4157      C4158   1.406       .  A
C4157      F4164   1.357       .  S
C4158      C4159   1.408       .  A
C4158      F4163   1.357       .  S
C4159      C4160   1.409       .  A
C4160      F4161   1.358       .  S
C4165      C4166   1.402       .  A
C4165      C4170   1.395       .  A
C4165      F4172   1.358       .  S
C4166      C4167   1.407       .  A
C4167      C4168   1.404       .  A
C4167      F4174   1.357       .  S
C4168      C4169   1.405       .  A
C4168      F4173   1.357       .  S
C4169      C4170   1.406       .  A
C4170      F4171   1.358       .  S
C4175      C4176   1.405       .  A
C4175      C4180   1.403       .  A
C4175      F4182   1.357       .  S
C4176      C4177   1.401       .  A
C4177      C4178   1.392       .  A
C4177      F4184   1.358       .  S
C4178      C4179   1.406       .  A
C4178      F4183   1.358       .  S
C4179      C4180   1.406       .  A
C4180      F4181   1.357       .  S
C4185      C4186   1.401       .  A
C4185      C4190   1.395       .  A
C4185      F4192   1.358       .  S
C4186      C4187   1.407       .  A
C4187      C4188   1.406       .  A
C4187      F4194   1.356       .  S
C4188      C4189   1.406       .  A
C4188      F4193   1.357       .  S
C4189      C4190   1.409       .  A
C4190      F4191   1.358       .  S
C4195      C4196   1.407       .  A
C4195      C4200   1.406       .  A
C4195      F4202   1.356       .  S
C4196      C4197   1.401       .  A
C4197      C4198   1.394       .  A
C4197      F4204   1.358       .  S
C4198      C4199   1.410       .  A
C4198      F4203   1.358       .  S
C4199      C4200   1.407       .  A
C4200      F4201   1.357       .  S
C4205      C4206   1.401       .  A
C4205      C4210   1.396       .  A
C4205      F4212   1.358       .  S
C4206      C4207   1.407       .  A
C4207      C4208   1.408       .  A
C4207      F4214   1.357       .  S
C4208      C4209   1.408       .  A
C4208      F4213   1.357       .  S
C4209      C4210   1.410       .  A
C4210      F4211   1.358       .  S
C4215      C4216   1.405       .  A
C4215      C4220   1.403       .  A
C4215      F4222   1.357       .  S
C4216      C4217   1.405       .  A
C4217      C4218   1.395       .  A
C4217      F4224   1.358       .  S
C4218      C4219   1.404       .  A
C4218      F4223   1.358       .  S
C4219      C4220   1.408       .  A
C4220      F4221   1.357       .  S
C4225      C4226   1.406       .  A
C4225      C4230   1.396       .  A
C4225      F4232   1.358       .  S
C4226      C4227   1.404       .  A
C4227      C4228   1.401       .  A
C4227      F4234   1.357       .  S
C4228      C4229   1.408       .  A
C4228      F4233   1.356       .  S
C4229      C4230   1.402       .  A
C4230      F4231   1.358       .  S
C4235      C4236   1.406       .  A
C4235      C4240   1.404       .  A
C4235      F4242   1.357       .  S
C4236      C4237   1.410       .  A
C4237      C4238   1.393       .  A
C4237      F4244   1.358       .  S
C4238      C4239   1.403       .  A
C4238      F4243   1.358       .  S
C4239      C4240   1.409       .  A
C4240      F4241   1.357       .  S
C4245      C4246   1.407       .  A
C4245      C4250   1.405       .  A
C4245      F4252   1.357       .  S
C4246      C4247   1.407       .  A
C4247      C4248   1.392       .  A
C4247      F4254   1.358       .  S
C4248      C4249   1.400       .  A
C4248      F4253   1.359       .  S
C4249      C4250   1.405       .  A
C4250      F4251   1.357   1_455  S
C4255      C4256   1.408       .  A
C4255      C4260   1.406       .  A
C4255      F4262   1.357       .  S
C4256      C4257   1.409       .  A
C4257      C4258   1.395       .  A
C4257      F4264   1.358       .  S
C4258      C4259   1.401       .  A
C4258      F4263   1.358       .  S
C4259      C4260   1.405       .  A
C4260      F4261   1.357       .  S
C4265      C4266   1.406       .  A
C4265      C4270   1.406       .  A
C4265      F4272   1.357       .  S
C4266      C4267   1.407       .  A
C4267      C4268   1.395       .  A
C4267      F4274   1.358       .  S
C4268      C4269   1.402       .  A
C4268      F4273   1.358       .  S
C4269      C4270   1.407       .  A
C4270      F4271   1.356       .  S
C4275      C4276   1.405       .  A
C4275      C4280   1.403       .  A
C4275      F4282   1.357       .  S
C4276      C4277   1.400       .  A
C4277      C4278   1.391       .  A
C4277      F4284   1.358   1_556  S
C4278      C4279   1.408       .  A
C4278      F4283   1.358       .  S
C4279      C4280   1.408       .  A
C4280      F4281   1.357       .  S
C4285      C4286   1.407       .  A
C4285      C4290   1.404       .  A
C4285      F4292   1.357       .  S
C4286      C4287   1.409       .  A
C4287      C4288   1.393       .  A
C4287      F4294   1.358   1_554  S
C4288      C4289   1.400       .  A
C4288      F4293   1.358   1_554  S
C4289      C4290   1.406       .  A
C4290      F4291   1.357       .  S
C4295      C4296   1.406       .  A
C4295      C4300   1.404       .  A
C4295      F4302   1.357   1_554  S
C4296      C4297   1.407       .  A
C4297      C4298   1.394       .  A
C4297      F4304   1.358       .  S
C4298      C4299   1.401       .  A
C4298      F4303   1.358       .  S
C4299      C4300   1.406       .  A
C4300      F4301   1.357   1_554  S
C4305      C4306   1.410       .  A
C4305      C4310   1.392       .  A
C4305      F4312   1.358       .  S
C4306      C4307   1.409       .  A
C4307      C4308   1.406       .  A
C4307      F4314   1.357       .  S
C4308      C4309   1.406       .  A
C4308      F4313   1.357       .  S
C4309      C4310   1.400       .  A
C4310      F4311   1.358       .  S
C4315      C4316   1.405       .  A
C4315      C4320   1.403       .  A
C4315      F4322   1.357       .  S
C4316      C4317   1.407       .  A
C4317      C4318   1.396       .  A
C4317      F4324   1.358       .  S
C4318      C4319   1.402       .  A
C4318      F4323   1.358       .  S
C4319      C4320   1.407       .  A
C4320      F4321   1.356       .  S
C4325      C4326   1.407       .  A
C4325      C4330   1.404       .  A
C4325      F4332   1.356       .  S
C4326      C4327   1.402       .  A
C4327      C4328   1.394       .  A
C4327      F4334   1.358       .  S
C4328      C4329   1.406       .  A
C4328      F4333   1.358       .  S
C4329      C4330   1.405       .  A
C4330      F4331   1.357       .  S
C4335      C4336   1.401       .  A
C4335      C4340   1.394       .  A
C4335      F4342   1.358       .  S
C4336      C4337   1.406       .  A
C4337      C4338   1.406       .  A
C4337      F4344   1.357       .  S
C4338      C4339   1.407       .  A
C4338      F4343   1.357       .  S
C4339      C4340   1.409       .  A
C4340      F4341   1.358       .  S
C4345      C4346   1.401       .  A
C4345      C4350   1.392       .  A
C4345      F4352   1.358       .  S
C4346      C4347   1.405       .  A
C4347      C4348   1.402       .  A
C4347      F4354   1.356       .  S
C4348      C4349   1.405       .  A
C4348      F4353   1.357       .  S
C4349      C4350   1.406       .  A
C4350      F4351   1.358       .  S
C4355      C4356   1.406       .  A
C4355      C4360   1.405       .  A
C4355      F4362   1.357       .  S
C4356      C4357   1.410       .  A
C4357      C4358   1.395       .  A
C4357      F4364   1.358       .  S
C4358      C4359   1.401       .  A
C4358      F4363   1.358       .  S
C4359      C4360   1.407       .  A
C4360      F4361   1.356       .  S
C4365      C4366   1.401       .  A
C4365      C4370   1.394       .  A
C4365      F4372   1.358       .  S
C4366      C4367   1.405       .  A
C4367      C4368   1.406       .  A
C4367      F4374   1.357       .  S
C4368      C4369   1.408       .  A
C4368      F4373   1.357       .  S
C4369      C4370   1.409       .  A
C4370      F4371   1.358       .  S
C4375      C4376   1.409       .  A
C4375      C4380   1.391       .  A
C4375      F4382   1.358       .  S
C4376      C4377   1.407       .  A
C4377      C4378   1.404       .  A
C4377      F4384   1.357       .  S
C4378      C4379   1.406       .  A
C4378      F4383   1.356       .  S
C4379      C4380   1.399       .  A
C4380      F4381   1.358       .  S
C4385      C4386   1.410       .  A
C4385      C4390   1.406       .  A
C4385      F4392   1.356       .  S
C4386      C4387   1.413       .  A
C4387      C4388   1.389       .  A
C4387      F4394   1.357       .  S
C4388      C4389   1.397       .  A
C4388      F4393   1.359       .  S
C4389      C4390   1.405       .  A
C4390      F4391   1.357       .  S
C4395      C4396   1.404       .  A
C4395      C4400   1.403       .  A
C4395      F4402   1.357       .  S
C4396      C4397   1.400   1_455  A
C4397      C4398   1.393   1_655  A
C4397      F4404   1.358       .  S
C4398      C4399   1.409       .  A
C4398      F4403   1.358   1_455  S
C4399      C4400   1.408       .  A
C4400      F4401   1.357       .  S
C4405      C4406   1.403       .  A
C4405      C4410   1.410       .  A
C4405      F4412   1.357       .  S
C4406      C4407   1.398       .  A
C4407      C4408   1.390       .  A
C4407      F4414   1.359       .  S
C4408      C4409   1.414       .  A
C4408      F4413   1.351       .  S
C4409      C4410   1.421       .  A
C4410      F4411   1.351       .  S
C4415      C4416   1.407       .  A
C4415      C4420   1.405       .  A
C4415      F4422   1.357       .  S
C4416      C4417   1.407       .  A
C4417      C4418   1.393       .  A
C4417      F4424   1.358       .  S
C4418      C4419   1.401       .  A
C4418      F4423   1.358       .  S
C4419      C4420   1.406       .  A
C4420      F4421   1.357       .  S
C4425      C4426   1.405       .  A
C4425      C4430   1.395       .  A
C4425      F4432   1.358   1_655  S
C4426      C4427   1.404       .  A
C4427      C4428   1.402       .  A
C4427      F4434   1.357       .  S
C4428      C4429   1.407       .  A
C4428      F4433   1.357       .  S
C4429      C4430   1.403       .  A
C4430      F4431   1.358   1_655  S
C4435      C4436   1.408       .  A
C4435      C4440   1.407       .  A
C4435      F4442   1.356       .  S
C4436      C4437   1.402       .  A
C4437      C4438   1.397       .  A
C4437      F4444   1.358       .  S
C4438      C4439   1.408       .  A
C4438      F4443   1.358       .  S
C4439      C4440   1.407       .  A
C4440      F4441   1.357       .  S
C4445      C4446   1.407       .  A
C4445      C4450   1.404       .  A
C4445      F4452   1.357       .  S
C4446      C4447   1.407   1_565  A
C4447      C4448   1.392       .  A
C4447      F4454   1.358       .  S
C4448      C4449   1.400   1_545  A
C4448      F4453   1.358       .  S
C4449      C4450   1.404       .  A
C4450      F4451   1.357       .  S
C4455      C4456   1.405       .  A
C4455      C4460   1.404       .  A
C4455      F4462   1.356       .  S
C4456      C4457   1.400       .  A
C4457      C4458   1.393       .  A
C4457      F4464   1.358       .  S
C4458      C4459   1.409       .  A
C4458      F4463   1.358       .  S
C4459      C4460   1.407       .  A
C4460      F4461   1.357       .  S
C4465      C4466   1.404       .  A
C4465      C4470   1.404       .  A
C4465      F4472   1.357       .  S
C4466      C4467   1.400       .  A
C4467      C4468   1.391       .  A
C4467      F4474   1.358       .  S
C4468      C4469   1.408       .  A
C4468      F4473   1.358       .  S
C4469      C4470   1.408       .  A
C4470      F4471   1.357       .  S
C4475      C4476   1.406       .  A
C4475      C4480   1.406       .  A
C4475      F4482   1.356       .  S
C4476      C4477   1.401       .  A
C4477      C4478   1.394       .  A
C4477      F4484   1.358       .  S
C4478      C4479   1.409       .  A
C4478      F4483   1.358       .  S
C4479      C4480   1.408       .  A
C4480      F4481   1.357       .  S
C4485      C4486   1.409       .  A
C4485      C4490   1.406       .  A
C4485      F4492   1.357       .  S
C4486      C4487   1.409       .  A
C4487      C4488   1.393       .  A
C4487      F4494   1.358   1_554  S
C4488      C4489   1.401       .  A
C4488      F4493   1.358       .  S
C4489      C4490   1.405       .  A
C4490      F4491   1.357       .  S
C4495      C4496   1.405       .  A
C4495      C4500   1.402       .  A
C4495      F4502   1.357   1_554  S
C4496      C4497   1.409       .  A
C4497      C4498   1.396       .  A
C4497      F4504   1.358       .  S
C4498      C4499   1.402       .  A
C4498      F4503   1.358       .  S
C4499      C4500   1.408       .  A
C4500      F4501   1.355   1_554  S
C4505      C4506   1.406       .  A
C4505      C4510   1.405       .  A
C4505      F4512   1.357       .  S
C4506      C4507   1.407       .  A
C4507      C4508   1.393       .  A
C4507      F4514   1.358       .  S
C4508      C4509   1.400       .  A
C4508      F4513   1.358   1_556  S
C4509      C4510   1.405       .  A
C4510      F4511   1.357       .  S
C4515      C4516   1.401       .  A
C4515      C4520   1.394       .  A
C4515      F4522   1.358       .  S
C4516      C4517   1.406       .  A
C4517      C4518   1.404       .  A
C4517      F4524   1.356       .  S
C4518      C4519   1.406       .  A
C4518      F4523   1.357       .  S
C4519      C4520   1.408       .  A
C4520      F4521   1.358       .  S
C4525      C4526   1.407       .  A
C4525      C4530   1.395       .  A
C4525      F4532   1.358       .  S
C4526      C4527   1.407       .  A
C4527      C4528   1.407       .  A
C4527      F4534   1.357       .  S
C4528      C4529   1.407       .  A
C4528      F4533   1.357       .  S
C4529      C4530   1.402       .  A
C4530      F4531   1.358       .  S
C4535      C4536   1.408       .  A
C4535      C4540   1.406       .  A
C4535      F4542   1.357       .  S
C4536      C4537   1.409       .  A
C4537      C4538   1.394       .  A
C4537      F4544   1.358       .  S
C4538      C4539   1.401       .  A
C4538      F4543   1.358       .  S
C4539      C4540   1.405       .  A
C4540      F4541   1.357       .  S
C4545      C4546   1.407       .  A
C4545      C4550   1.406       .  A
C4545      F4552   1.357       .  S
C4546      C4547   1.408       .  A
C4547      C4548   1.394       .  A
C4547      F4554   1.358       .  S
C4548      C4549   1.401       .  A
C4548      F4553   1.358       .  S
C4549      C4550   1.406       .  A
C4550      F4551   1.357       .  S
C4555      C4556   1.406   1_545  A
C4555      C4560   1.405       .  A
C4555      F4562   1.357       .  S
C4556      C4557   1.407       .  A
C4557      C4558   1.394       .  A
C4557      F4564   1.358       .  S
C4558      C4559   1.401       .  A
C4558      F4563   1.358       .  S
C4559      C4560   1.406   1_565  A
C4560      F4561   1.357       .  S
C4565      C4566   1.409   1_545  A
C4565      C4570   1.395       .  A
C4565      F4572   1.358       .  S
C4566      C4567   1.406       .  A
C4567      C4568   1.404       .  A
C4567      F4574   1.357       .  S
C4568      C4569   1.407       .  A
C4568      F4573   1.356       .  S
C4569      C4570   1.401   1_565  A
C4570      F4571   1.358       .  S
C4575      C4576   1.403       .  A
C4575      C4580   1.393       .  A
C4575      F4582   1.358       .  S
C4576      C4577   1.407       .  A
C4577      C4578   1.405       .  A
C4577      F4584   1.357       .  S
C4578      C4579   1.406       .  A
C4578      F4583   1.357       .  S
C4579      C4580   1.405       .  A
C4580      F4581   1.358       .  S
C4585      C4586   1.401       .  A
C4585      C4590   1.393       .  A
C4585      F4592   1.358       .  S
C4586      C4587   1.406       .  A
C4587      C4588   1.404       .  A
C4587      F4594   1.357       .  S
C4588      C4589   1.406       .  A
C4588      F4593   1.357       .  S
C4589      C4590   1.406       .  A
C4590      F4591   1.358       .  S
C4595      C4596   1.400       .  A
C4595      C4600   1.391       .  A
C4595      F4602   1.359       .  S
C4596      C4597   1.405       .  A
C4597      C4598   1.405       .  A
C4597      F4604   1.357       .  S
C4598      C4599   1.408       .  A
C4598      F4603   1.357       .  S
C4599      C4600   1.408       .  A
C4600      F4601   1.358       .  S
C4605      C4606   1.406       .  A
C4605      C4610   1.406       .  A
C4605      F4612   1.357       .  S
C4606      C4607   1.401       .  A
C4607      C4608   1.394       .  A
C4607      F4614   1.358       .  S
C4608      C4609   1.407       .  A
C4608      F4613   1.358       .  S
C4609      C4610   1.407       .  A
C4610      F4611   1.357       .  S
C4615      C4616   1.401       .  A
C4615      C4620   1.396       .  A
C4615      F4622   1.358       .  S
C4616      C4617   1.407       .  A
C4617      C4618   1.405       .  A
C4617      F4624   1.356       .  S
C4618      C4619   1.405       .  A
C4618      F4623   1.357       .  S
C4619      C4620   1.408       .  A
C4620      F4621   1.358       .  S
C4625      C4626   1.401       .  A
C4625      C4630   1.394       .  A
C4625      F4632   1.358       .  S
C4626      C4627   1.406       .  A
C4627      C4628   1.405       .  A
C4627      F4634   1.357       .  S
C4628      C4629   1.407       .  A
C4628      F4633   1.357       .  S
C4629      C4630   1.408       .  A
C4630      F4631   1.358       .  S
C4635      C4636   1.404       .  A
C4635      C4640   1.399       .  A
C4635      F4642   1.358       .  S
C4636      C4637   1.409       .  A
C4637      C4638   1.409       .  A
C4637      F4644   1.356       .  S
C4638      C4639   1.407       .  A
C4638      F4643   1.357       .  S
C4639      C4640   1.408       .  A
C4640      F4641   1.358       .  S
C4645      C4646   1.399       .  A
C4645      C4650   1.392       .  A
C4645      F4652   1.359       .  S
C4646      C4647   1.403       .  A
C4647      C4648   1.412       .  A
C4647      F4654   1.357       .  S
C4648      C4649   1.423       .  A
C4648      F4653   1.350       .  S
C4649      C4650   1.415       .  A
C4650      F4651   1.352       .  S
C4655      C4656   1.410       .  A
C4655      C4660   1.395       .  A
C4655      F4662   1.358       .  S
C4656      C4657   1.408       .  A
C4657      C4658   1.405       .  A
C4657      F4664   1.357       .  S
C4658      C4659   1.406       .  A
C4658      F4663   1.356       .  S
C4659      C4660   1.401       .  A
C4660      F4661   1.358       .  S
C4665      C4666   1.405       .  A
C4665      C4670   1.391       .  A
C4665      F4672   1.358       .  S
C4666      C4667   1.405       .  A
C4667      C4668   1.403       .  A
C4667      F4674   1.357       .  S
C4668      C4669   1.405       .  A
C4668      F4673   1.356       .  S
C4669      C4670   1.401       .  A
C4670      F4671   1.358       .  S
C4675      C4676   1.405       .  A
C4675      C4680   1.404       .  A
C4675      F4682   1.357       .  S
C4676      C4677   1.403       .  A
C4677      C4678   1.393       .  A
C4677      F4684   1.358       .  S
C4678      C4679   1.407       .  A
C4678      F4683   1.357       .  S
C4679      C4680   1.407       .  A
C4680      F4681   1.357       .  S
C4685      C4686   1.405       .  A
C4685      C4690   1.401       .  A
C4685      F4692   1.357       .  S
C4686      C4687   1.401       .  A
C4687      C4688   1.391       .  A
C4687      F4694   1.358       .  S
C4688      C4689   1.405       .  A
C4688      F4693   1.358       .  S
C4689      C4690   1.405       .  A
C4690      F4691   1.357       .  S
C4695      C4696   1.407       .  A
C4695      C4700   1.402       .  A
C4695      F4702   1.357       .  S
C4696      C4697   1.406       .  A
C4697      C4698   1.390       .  A
C4697      F4704   1.358       .  S
C4698      C4699   1.400       .  A
C4698      F4703   1.358       .  S
C4699      C4700   1.403       .  A
C4700      F4701   1.357       .  S
