geometry optimzed in LAMMPS
_audit_creation_date              2020-11-30 
_audit_creation_method            'lammps2cif' 
_symmetry_space_group_name_H-M    'P1' 
_symmetry_Int_Tables_number       1 
_symmetry_cell_setting            triclinic 
loop_ 
_symmetry_equiv_pos_as_xyz 
  x,y,z 
_cell_length_a                    41.21236116 
_cell_length_b                    37.23267306584401 
_cell_length_c                    37.61037957994129 
_cell_angle_alpha                 89.1662850595455 
_cell_angle_beta                  92.40314194266027 
_cell_angle_gamma                 87.57225708763401 
loop_ 
_atom_site_label 
_atom_site_type_symbol 
_atom_site_fract_x 
_atom_site_fract_y 
_atom_site_fract_z 
_atom_site_charge 
O1          O  0.51619202  0.41862521  0.44648823    -0.79500
O2          O  0.49247049  0.54733300  0.55708666    -0.64200
O3          O  0.48731880  0.48318141  0.47648321    -1.10800
C4          C  0.56938916  0.56051547  0.43873934     1.07400
O5          O  0.48645785  0.59564194  0.52189544    -0.77400
O6          O  0.48232349  0.58343457  0.44800741    -0.65000
Ni7        Ni  0.48679231  0.43164643  0.48365679     1.34900
C8          C  0.47785678  0.56123971  0.42255286     0.86100
O9          O  0.45463381  0.49050665  0.54066934    -0.78000
O10         O  0.45441732  0.43504804  0.51883400    -0.88200
C11         C  0.48527535  0.58093257  0.55275017     0.85700
O12         O  0.52263671  0.43138384  0.51837963    -0.66400
O13         O  0.55089795  0.58521984  0.45100492    -0.85700
C14         C  0.53646678  0.45325276  0.53968735     0.86500
C15         C  0.44291567  0.45923056  0.53860977     1.08100
H16         H  0.54288694  0.53284699  0.50752226     0.39900
O17         O  0.52253329  0.53623752  0.49393592    -1.08400
O18         O  0.49400762  0.53132156  0.42169073    -0.65000
Ni19       Ni  0.52381771  0.50399280  0.45489946     1.26300
O20         O  0.52436460  0.48491983  0.54423214    -0.65300
O21         O  0.56172153  0.52731743  0.43821462    -0.77600
C22         C  0.52602392  0.43456181  0.41909342     0.85900
O23         O  0.52573901  0.46900536  0.41678056    -0.64700
Ni24       Ni  0.51709251  0.58686854  0.48483376     1.27400
Ni25       Ni  0.48959628  0.51360917  0.51811089     1.26100
H26         H  0.46761373  0.49022739  0.46286597     0.40400
O27         O  0.56124391  0.24189257  0.20968142    -0.79500
O28         O  0.46635685  0.20081852  0.32639350    -0.64200
O29         O  0.51129218  0.21445184  0.24202064    -1.10800
C30         C  0.42204280  0.29864244  0.21385460     1.07400
O31         O  0.41975174  0.19348231  0.29510521    -0.77400
O32         O  0.41788849  0.20191624  0.22004687    -0.65000
Ni33       Ni  0.55067158  0.23003005  0.25861066     1.34900
C34         C  0.43537461  0.20076206  0.19239596     0.86100
O35         O  0.52773603  0.17197819  0.30036127    -0.78000
O36         O  0.56794218  0.18088290  0.26233614    -0.88200
C37         C  0.43662037  0.19181927  0.32463250     0.85700
O38         O  0.53142828  0.27651135  0.26523745    -0.66400
O39         O  0.40550234  0.27692509  0.23180276    -0.85700
C40         C  0.52429908  0.27666263  0.29790787     0.86500
C41         C  0.55692862  0.16335691  0.28892287     1.08100
H42         H  0.46057774  0.26416870  0.27981412     0.39900
O43         O  0.45969373  0.24291769  0.26545687    -1.08400
O44         O  0.46098829  0.21908701  0.19090102    -0.65000
Ni45       Ni  0.48286106  0.25233177  0.22407291     1.26300
O46         O  0.51244201  0.24788774  0.31073371    -0.65300
O47         O  0.45267634  0.29248486  0.20903914    -0.77600
C48         C  0.54303644  0.25881586  0.18548864     0.85900
O49         O  0.51178193  0.26218311  0.18657996    -0.64700
Ni50       Ni  0.41505418  0.23366932  0.26133498     1.27400
Ni51       Ni  0.49125503  0.20764508  0.28477179     1.26100
H52         H  0.51219598  0.19309172  0.22737115     0.40400
C53         C  0.75385357  0.81698072  0.75467226     0.81600
N54         N  0.76858964  0.78475215  0.74773579    -0.76700
C55         C  0.76249834  0.75545530  0.76761416     0.84000
N56         N  0.74267487  0.75867159  0.79526754    -0.76700
C57         C  0.72819037  0.79091673  0.80220772     0.84100
N58         N  0.73405263  0.82026118  0.78224745    -0.78400
C59         C  0.75959347  0.01537461  0.95708197     0.81600
N60         N  0.78421866  0.01171064  0.98219802    -0.76700
C61         C  0.78004249  0.99248882  0.01242743     0.84000
N62         N  0.75179201  0.97616827  0.01703463    -0.76700
C63         C  0.72725497  0.97990839  0.99213473     0.84100
N64         N  0.73125435  0.99912174  0.96184215    -0.78400
C65         C  0.94690521  0.76645633  0.93258924     0.81600
N66         N  0.97578008  0.78240880  0.93366884    -0.76700
C67         C  0.98485741  0.80141037  0.96253919     0.84000
N68         N  0.96521096  0.80440221  0.99038218    -0.76700
C69         C  0.93642503  0.78806958  0.98949466     0.84100
N70         N  0.92717923  0.76907344  0.96056805    -0.78400
C71         C  0.95382824  0.00216877  0.79478021     0.81600
N72         N  0.97985590  0.00583490  0.81738474    -0.76700
C73         C  0.00057285  0.97722842  0.82466603     0.84000
N74         N  0.99496514  0.94476210  0.80987934    -0.76700
C75         C  0.96847542  0.94140805  0.78770989     0.84100
N76         N  0.94807554  0.97008454  0.78030628    -0.78400
N77         N  0.08510635  0.90399171  0.91803709    -0.35200
N78         N  0.12491720  0.84209389  0.93606417    -0.55800
N79         N  0.17544011  0.86731176  0.88765956    -0.35200
N80         N  0.13464098  0.93403868  0.87487649    -0.55800
C81         C  0.06782073  0.88810475  0.94296035     0.28400
C82         C  0.07423459  0.93840637  0.91493853     0.28400
C83         C  0.19283798  0.84374034  0.91011655     0.28300
C84         C  0.19590410  0.88884357  0.87073577     0.28300
C85         C  0.09504526  0.82931800  0.93841631     0.37000
C86         C  0.14441905  0.81421294  0.92734974     0.37000
C87         C  0.10766700  0.95444459  0.86482051     0.37000
C88         C  0.15349784  0.93328217  0.84629019     0.37000
C89         C  0.04590537  0.91289767  0.95669849    -0.20500
C90         C  0.05002995  0.94497426  0.93890478    -0.20500
C91         C  0.22554677  0.85017527  0.90703604    -0.20500
C92         C  0.22749127  0.87811209  0.88178996    -0.20500
C93         C  0.09536862  0.79283533  0.93180704    -0.21600
C94         C  0.12689180  0.78322991  0.92431620    -0.21600
C95         C  0.10980148  0.96740927  0.83038956    -0.21600
C96         C  0.13826319  0.95333175  0.81837063    -0.21600
C97         C  0.06846665  0.85080506  0.94832950    -0.16900
C98         C  0.08020497  0.96008994  0.88546080    -0.16900
C99         C  0.18544546  0.91740990  0.84589370    -0.16900
C100        C  0.17831423  0.81602326  0.93071611    -0.16900
H101        H  0.02764878  0.90783962  0.97580461     0.16000
H102        H  0.03530523  0.96952376  0.94128030     0.16000
H103        H  0.24588292  0.83578927  0.92067578     0.16000
H104        H  0.24957638  0.88961983  0.87317674     0.16000
H105        H  0.07520293  0.77516866  0.93249038     0.14300
H106        H  0.13618904  0.75636532  0.91868138     0.14300
H107        H  0.09215004  0.98421632  0.81500028     0.14300
H108        H  0.14646026  0.95718131  0.79170721     0.14300
H109        H  0.10020462  0.89077849  0.90052642     0.27500
H110        H  0.15034056  0.86823113  0.88305697     0.27500
N111        N  0.86793668  0.88238590  0.08760983    -0.35200
N112        N  0.84754818  0.92621519  0.14501193    -0.55800
N113        N  0.88114035  0.87587217  0.19843842    -0.35200
N114        N  0.89680616  0.82907908  0.13927542    -0.55800
C115        C  0.84923604  0.90779570  0.06965770     0.28400
C116        C  0.87017491  0.85359787  0.06647210     0.28400
C117        C  0.86065534  0.89531223  0.21987690     0.28300
C118        C  0.89755549  0.84797371  0.21700165     0.28300
C119        C  0.84425932  0.95099077  0.11833752     0.37000
C120        C  0.84421214  0.94425969  0.17544585     0.37000
C121        C  0.90045266  0.81064495  0.10867109     0.37000
C122        C  0.91348025  0.80957433  0.16526676     0.37000
C123        C  0.83971672  0.89515000  0.03647373    -0.20500
C124        C  0.85304717  0.86084973  0.03444272    -0.20500
C125        C  0.86451684  0.87933043  0.25354103    -0.20500
C126        C  0.88796193  0.85055711  0.25195950    -0.20500
C127        C  0.83875090  0.98499985  0.13169206    -0.21600
C128        C  0.83870285  0.98078751  0.16788942    -0.21600
C129        C  0.91801050  0.77875306  0.11539830    -0.21600
C130        C  0.92583115  0.77792027  0.15089131    -0.21600
C131        C  0.84168401  0.94241851  0.08218155    -0.16900
C132        C  0.88893128  0.82192003  0.07426281    -0.16900
C133        C  0.91868770  0.81946237  0.20163479    -0.16900
C134        C  0.84036348  0.92774004  0.20897503    -0.16900
H135        H  0.82487119  0.90915770  0.01581567     0.16000
H136        H  0.85053373  0.84325060  0.01192362     0.16000
H137        H  0.85227952  0.88788947  0.27706904     0.16000
H138        H  0.89582790  0.83260176  0.27380996     0.16000
H139        H  0.83413031  0.00995767  0.11685649     0.14300
H140        H  0.83428003  0.00213270  0.18648465     0.14300
H141        H  0.92427351  0.75796727  0.09674195     0.14300
H142        H  0.93835398  0.75564374  0.16455134     0.14300
H143        H  0.88014128  0.88539232  0.11196690     0.27500
H144        H  0.88434708  0.88175987  0.17189997     0.27500
N145        N  0.86800752  0.88341322  0.70040026    -0.35200
N146        N  0.92146768  0.89243297  0.65308420    -0.55800
N147        N  0.87774024  0.88362668  0.59210162    -0.35200
N148        N  0.82633028  0.86905184  0.64000481    -0.55800
C149        C  0.89343370  0.87672693  0.72374491     0.28400
C150        C  0.84094356  0.87383408  0.71644026     0.28400
C151        C  0.90606043  0.88988308  0.57607828     0.28300
C152        C  0.85939671  0.86160836  0.57138079     0.28300
C153        C  0.93697839  0.89667543  0.68506197     0.37000
C154        C  0.93913792  0.90915604  0.62881263     0.37000
C155        C  0.80306439  0.87474476  0.66360457     0.37000
C156        C  0.81104506  0.86192573  0.60875729     0.37000
C157        C  0.88231100  0.86335873  0.75541927    -0.20500
C158        C  0.84909757  0.86164486  0.75086875    -0.20500
C159        C  0.90517218  0.87295475  0.54344388    -0.20500
C160        C  0.87632690  0.85447184  0.54092403    -0.20500
C161        C  0.96524119  0.91484525  0.68095453    -0.21600
C162        C  0.96643919  0.92306930  0.64559696    -0.21600
C163        C  0.77259335  0.87145804  0.64720752    -0.21600
C164        C  0.77780050  0.86268058  0.61266418    -0.21600
C165        C  0.92585061  0.88525388  0.71817257    -0.16900
C166        C  0.80925570  0.87571130  0.70056749    -0.16900
C167        C  0.82726118  0.84965584  0.57878183    -0.16900
C168        C  0.93248501  0.90965549  0.59148617    -0.16900
H169        H  0.89661422  0.85597273  0.77941175     0.16000
H170        H  0.83290505  0.85218759  0.77056214     0.16000
H171        H  0.92381456  0.87271390  0.52403458     0.16000
H172        H  0.86836946  0.83839036  0.51872920     0.16000
H173        H  0.98293928  0.92218508  0.70134088     0.14300
H174        H  0.98579619  0.93724660  0.63387325     0.14300
H175        H  0.74920834  0.87297339  0.65932170     0.14300
H176        H  0.75916915  0.85713748  0.59302845     0.14300
H177        H  0.86861469  0.89557738  0.67549495     0.27500
H178        H  0.87137779  0.89497923  0.61593607     0.27500
N179        N  0.86954193  0.67105354  0.83510528    -0.35200
N180        N  0.90898691  0.62543765  0.88437937    -0.55800
N181        N  0.86056811  0.56944298  0.87787664    -0.35200
N182        N  0.82433027  0.61505079  0.82488465    -0.55800
C183        C  0.89593504  0.69077620  0.83982594     0.28400
C184        C  0.85312176  0.68362608  0.80545853     0.28400
C185        C  0.88677953  0.55104136  0.89321052     0.28300
C186        C  0.84142979  0.54554492  0.86104751     0.28300
C187        C  0.91988724  0.65805545  0.89286995     0.37000
C188        C  0.91792440  0.60348841  0.91224683     0.37000
C189        C  0.80752788  0.64274398  0.80821945     0.37000
C190        C  0.80255540  0.59027544  0.83217480     0.37000
C191        C  0.89668647  0.71632061  0.81274135    -0.20500
C192        C  0.86959113  0.71164133  0.79074831    -0.20500
C193        C  0.88383663  0.51467229  0.88702033    -0.20500
C194        C  0.85544109  0.51124536  0.86633916    -0.20500
C195        C  0.93608349  0.65660577  0.92600225    -0.21600
C196        C  0.93503404  0.62189615  0.93814092    -0.21600
C197        C  0.77491393  0.63541927  0.80435926    -0.21600
C198        C  0.77183786  0.60208648  0.81947872    -0.21600
C199        C  0.91639957  0.68877546  0.87054835    -0.16900
C200        C  0.82177668  0.67344046  0.79464975    -0.16900
C201        C  0.81151476  0.55445549  0.84174281    -0.16900
C202        C  0.91222525  0.56661023  0.91379285    -0.16900
H203        H  0.91429857  0.73680978  0.80985243     0.16000
H204        H  0.86209525  0.72797297  0.76755900     0.16000
H205        H  0.90055572  0.49295280  0.89614935     0.16000
H206        H  0.84600159  0.48634521  0.85668900     0.16000
H207        H  0.94782947  0.67809335  0.93987072     0.14300
H208        H  0.94547229  0.61148031  0.96328888     0.14300
H209        H  0.75554093  0.65193945  0.79136157     0.14300
H210        H  0.74979192  0.58764215  0.81994361     0.14300
H211        H  0.86156090  0.65263569  0.85340266     0.27500
H212        H  0.85551588  0.59693569  0.87984336     0.27500
N213        N  0.66302219  0.85666987  0.93172531    -0.35200
N214        N  0.61508281  0.82495785  0.88341461    -0.55800
N215        N  0.55792685  0.85760136  0.91622979    -0.35200
N216        N  0.60806391  0.89415257  0.96008135    -0.55800
C217        C  0.68077040  0.84582225  0.90453768     0.28400
C218        C  0.67651732  0.88603856  0.94498212     0.28400
C219        C  0.54513708  0.84683222  0.88402946     0.28300
C220        C  0.54162965  0.88776219  0.92776041     0.28300
C221        C  0.64218827  0.80308994  0.88350807     0.37000
C222        C  0.59027532  0.80365719  0.87544612     0.37000
C223        C  0.63260301  0.89977578  0.98399449     0.37000
C224        C  0.58060389  0.89640996  0.97806827     0.37000
C225        C  0.70678851  0.86776332  0.90076686    -0.20500
C226        C  0.70403945  0.89358505  0.92660899    -0.20500
C227        C  0.51891674  0.87044577  0.87508301    -0.20500
C228        C  0.51683529  0.89618413  0.90234850    -0.20500
C229        C  0.63488181  0.76826662  0.87584769    -0.21600
C230        C  0.60188025  0.76890808  0.87166362    -0.21600
C231        C  0.62114470  0.90561478  0.01739341    -0.21600
C232        C  0.58815315  0.90236601  0.01379323    -0.21600
C233        C  0.67335278  0.81594364  0.88451796    -0.16900
C234        C  0.66423524  0.90461711  0.97384199    -0.16900
C235        C  0.55043072  0.90602536  0.96078217    -0.16900
C236        C  0.55872889  0.81647002  0.86438989    -0.16900
H237        H  0.72540943  0.86560705  0.88136012     0.16000
H238        H  0.72021482  0.91535902  0.93114793     0.16000
H239        H  0.50342780  0.86985381  0.85116913     0.16000
H240        H  0.49932294  0.91861965  0.90305690     0.16000
H241        H  0.65153301  0.74529381  0.87307705     0.14300
H242        H  0.58741012  0.74696824  0.86577778     0.14300
H243        H  0.63493696  0.91237407  0.04131818     0.14300
H244        H  0.57111029  0.90693840  0.03424859     0.14300
H245        H  0.64304595  0.84382893  0.94130487     0.27500
H246        H  0.57733150  0.84439608  0.93036035     0.27500
N247        N  0.83299171  0.08404965  0.83644729    -0.35200
N248        N  0.88209884  0.13824552  0.82238617    -0.55800
N249        N  0.84821386  0.19259833  0.86126818    -0.35200
N250        N  0.80234295  0.13706098  0.87970736    -0.55800
C251        C  0.85857565  0.06379326  0.82614767     0.28400
C252        C  0.81596831  0.06319198  0.85788790     0.28400
C253        C  0.87622504  0.20951494  0.85550771     0.28300
C254        C  0.83428170  0.20705980  0.89007017     0.28300
C255        C  0.88733096  0.11253220  0.79805489     0.37000
C256        C  0.89504118  0.16815865  0.80930206     0.37000
C257        C  0.77993369  0.11164194  0.87827272     0.37000
C258        C  0.78709904  0.16711559  0.89109778     0.37000
C259        C  0.85726675  0.02912824  0.83997698    -0.20500
C260        C  0.83020311  0.02878218  0.86022776    -0.20500
C261        C  0.87976115  0.23615849  0.88051583    -0.20500
C262        C  0.85346698  0.23442877  0.90252725    -0.20500
C263        C  0.90365868  0.12572955  0.76971839    -0.21600
C264        C  0.90800313  0.16107946  0.77666598    -0.21600
C265        C  0.75019605  0.12533938  0.88848587    -0.21600
C266        C  0.75462651  0.16057612  0.89638061    -0.21600
C267        C  0.88239423  0.07617883  0.80405540    -0.16900
C268        C  0.78812346  0.07509245  0.87521077    -0.16900
C269        C  0.80383537  0.19713600  0.90349195    -0.16900
C270        C  0.89769386  0.20087526  0.82768086    -0.16900
H271        H  0.87419267  0.00661149  0.83622447     0.16000
H272        H  0.82215632  0.00600891  0.87520021     0.16000
H273        H  0.89933291  0.25456499  0.88290597     0.16000
H274        H  0.84880791  0.25172056  0.92478956     0.16000
H275        H  0.91182340  0.11123105  0.74676331     0.14300
H276        H  0.91944981  0.17955063  0.75971361     0.14300
H277        H  0.72811482  0.11100092  0.89136961     0.14300
H278        H  0.73599912  0.17857124  0.90594086     0.14300
H279        H  0.82739074  0.11064183  0.82866487     0.27500
H280        H  0.83821713  0.17293646  0.84539108     0.27500
O281        O  0.30533836  0.54865562  0.31957406    -0.79500
O282        O  0.18270381  0.49375550  0.23471127    -0.64200
O283        O  0.26491641  0.49829096  0.28657625    -1.10800
C284        C  0.29711191  0.54790414  0.17518059     1.07400
O285        O  0.20765020  0.47127571  0.18817261    -0.77400
O286        O  0.27290083  0.46652332  0.18149307    -0.65000
Ni287      Ni  0.26943394  0.51951478  0.33174404     1.34900
C288        C  0.29350455  0.45193272  0.20444984     0.86100
O289        O  0.20380070  0.47487969  0.30325592    -0.78000
O290        O  0.23669546  0.48974397  0.34983052    -0.88200
C291        C  0.18228256  0.47595397  0.20594437     0.85700
O292        O  0.23782463  0.55923517  0.32166837    -0.66400
O293        O  0.27005572  0.53878638  0.16161432    -0.85700
C294        C  0.21194892  0.56676638  0.30210327     0.86500
C295        C  0.21244415  0.47370874  0.33661956     0.96900
H296        H  0.23809073  0.54555373  0.22442759     0.39900
O297        O  0.24489665  0.52039596  0.22517843    -1.08400
O298        O  0.30068495  0.46807316  0.23342905    -0.65000
Ni299      Ni  0.28749419  0.51768095  0.24794885     1.26300
O300        O  0.20363392  0.54551421  0.27721838    -0.65300
O301        O  0.30722232  0.53843840  0.20695421    -0.77600
C302        C  0.33085154  0.53932820  0.30319790     0.85900
O303        O  0.32860914  0.51914983  0.27583613    -0.64700
Ni304      Ni  0.23986131  0.50490964  0.17751107     1.27400
Ni305      Ni  0.22269524  0.49807480  0.26289150     1.26100
H306        H  0.27228525  0.47346268  0.29005819     0.40400
O307        O  0.32252220  0.31902693  0.54117463    -0.79500
O308        O  0.22627248  0.19671376  0.48932529    -0.64200
O309        O  0.27788888  0.28183751  0.49634491    -1.10800
C310        C  0.18520128  0.30968817  0.56821427     1.07400
O311        O  0.18212665  0.21435484  0.51905192    -0.77400
O312        O  0.17888946  0.31191448  0.48586806    -0.65000
Ni313      Ni  0.32321002  0.27828987  0.50963106     1.34900
C314        C  0.19786887  0.33646247  0.47801469     0.86100
O315        O  0.28551220  0.21343808  0.46192218    -0.78000
O316        O  0.33197779  0.23957837  0.47704376    -0.88200
C317        C  0.19669895  0.19227731  0.49864723     0.85700
O318        O  0.31792183  0.24521208  0.54907470    -0.66400
O319        O  0.17151813  0.28370783  0.55153311    -0.85700
C320        C  0.30057824  0.21782189  0.55391823     0.86500
C321        C  0.31639170  0.21616986  0.45983779     1.08100
H322        H  0.22663224  0.25038248  0.54501393     0.39900
O323        O  0.22563815  0.26232494  0.52198619    -1.08400
O324        O  0.22768480  0.33380879  0.48815890    -0.65000
Ni325      Ni  0.24765520  0.30465553  0.52806848     1.26300
O326        O  0.27519600  0.21238272  0.53452081    -0.65300
O327        O  0.21372796  0.32106970  0.56037049    -0.77600
C328        C  0.30375385  0.34672433  0.54457261     0.85900
O329        O  0.27336054  0.34658538  0.53590319    -0.64700
Ni330      Ni  0.18212204  0.26407018  0.50511948     1.27400
Ni331      Ni  0.25458343  0.23751825  0.49281094     1.26100
H332        H  0.27582720  0.29392101  0.47337904     0.40400
O333        O  0.57317198  0.79166134  0.72985100    -0.79500
O334        O  0.47699958  0.72614925  0.84015532    -0.64200
O335        O  0.53313115  0.74046531  0.76209892    -1.10800
C336        C  0.43892846  0.80642323  0.71402608     1.07400
O337        O  0.43855129  0.70968787  0.80193220    -0.77400
O338        O  0.44114636  0.71691821  0.73041275    -0.65000
Ni339      Ni  0.57588398  0.75750159  0.76987291     1.34900
C340        C  0.46130654  0.71133793  0.70590742     0.86100
O341        O  0.53812868  0.70215940  0.82649662    -0.78000
O342        O  0.58512235  0.72137590  0.80678415    -0.88200
C343        C  0.45087408  0.70989614  0.83341137     0.85700
O344        O  0.56537363  0.79491318  0.80459914    -0.66400
O345        O  0.42327100  0.78869103  0.73627507    -0.85700
C346        C  0.54614993  0.79649375  0.83075047     0.86500
C347        C  0.56901240  0.70026747  0.82575377     1.08100
H348        H  0.47519258  0.78833015  0.78691526     0.39900
O349        O  0.47662265  0.76517853  0.77563263    -1.08400
O350        O  0.48763142  0.72830368  0.70590307    -0.65000
Ni351      Ni  0.50230737  0.76990389  0.73444866     1.26300
O352        O  0.52241560  0.77521672  0.83227458    -0.65300
O353        O  0.46970762  0.80172227  0.71014627    -0.77600
C354        C  0.55929487  0.78783641  0.69910875     0.85900
O355        O  0.53127685  0.77483451  0.69614824    -0.64700
Ni356      Ni  0.43350893  0.74949806  0.76880805     1.27400
Ni357      Ni  0.50680058  0.73460606  0.80272022     1.26100
H358        H  0.53544759  0.71736752  0.75085723     0.40400
O359        O  0.31854025  0.78345285  0.02745743    -0.79500
O360        O  0.22530633  0.66416458  0.96469196    -0.64200
O361        O  0.27380198  0.74996575  0.97991706    -1.10800
C362        C  0.18794044  0.78110316  0.05874743     1.07400
O363        O  0.17755076  0.69415419  0.96421358    -0.77400
O364        O  0.17645903  0.76562295  0.97013002    -0.65000
Ni365      Ni  0.31935023  0.74777987  0.99112778     1.34900
C366        C  0.19397618  0.79087114  0.95966169     0.86100
O367        O  0.27979850  0.69020901  0.93615440    -0.78000
O368        O  0.32676352  0.71400918  0.95453492    -0.88200
C369        C  0.19463152  0.66610049  0.95771536     0.85700
O370        O  0.31748431  0.71032212  0.02659942    -0.66400
O371        O  0.17162992  0.75720177  0.04345116    -0.85700
C372        C  0.30240311  0.68104563  0.02775862     0.86500
C373        C  0.31048505  0.69393902  0.93420868     1.08100
H374        H  0.22981276  0.71134441  0.03141223     0.39900
O375        O  0.22464749  0.72502736  0.00974521    -1.08400
O376        O  0.22159421  0.79610135  0.97488627    -0.65000
Ni377      Ni  0.24588403  0.77002490  0.01426646     1.26300
O378        O  0.27696454  0.67593689  0.00817909    -0.65300
O379        O  0.21676864  0.78802952  0.04978559    -0.77600
C380        C  0.30072406  0.81180959  0.03011507     0.85900
O381        O  0.27076310  0.81283417  0.01971161    -0.64700
Ni382      Ni  0.17823566  0.72629110  0.00353971     1.27400
Ni383      Ni  0.25133072  0.70608574  0.97295846     1.26100
H384        H  0.27092925  0.76384787  0.95804715     0.40400
O385        O  0.07251837  0.48385339  0.04566534    -0.79500
O386        O  0.96098889  0.53375290  0.93310113    -0.64200
O387        O  0.02174057  0.50034616  0.00554114    -1.10800
C388        C  0.93590827  0.43143677  0.04344233     1.07400
O389        O  0.92199304  0.54210797  0.97171998    -0.77400
O390        O  0.93573831  0.52848902  0.04236717    -0.65000
Ni391      Ni  0.06256883  0.48051457  0.99536682     1.34900
C392        C  0.95961505  0.52615438  0.06523096     0.86100
O393        O  0.02642818  0.54776889  0.95212759    -0.78000
O394        O  0.07276150  0.52985985  0.98412699    -0.88200
C395        C  0.93232670  0.54476812  0.94038898     0.85700
O396        O  0.05550019  0.47177996  0.94527349    -0.66400
O397        O  0.91699407  0.45667021  0.03008700    -0.85700
C398        C  0.03077977  0.46796957  0.92441488     0.86500
C399        C  0.05599364  0.55305500  0.96423313     1.08100
H400        H  0.96147774  0.46351132  0.97381605     0.39900
O401        O  0.96455809  0.48355834  0.98945864    -1.08400
O402        O  0.98331293  0.50336604  0.06226880    -0.65000
Ni403      Ni  0.99535738  0.46773353  0.02673262     1.26300
O404        O  0.00297508  0.47944815  0.93319652    -0.65300
O405        O  0.96685487  0.43339059  0.04514011    -0.77600
C406        C  0.05921869  0.46214629  0.06685221     0.85900
O407        O  0.02979598  0.45208180  0.06131363    -0.64700
Ni408      Ni  0.92232340  0.49995940  0.00190404     1.27400
Ni409      Ni  0.99314795  0.51618367  0.96843882     1.26100
H410        H  0.02447502  0.52044679  0.02122850     0.40400
O411        O  0.20380547  0.08023048  0.78990458    -0.79500
O412        O  0.30906505  0.97306331  0.72509107    -0.64200
O413        O  0.23098756  0.03113376  0.74010170    -1.10800
C414        C  0.20651310  0.93369824  0.81839876     1.07400
O415        O  0.28157055  0.92296380  0.72110040    -0.77400
O416        O  0.21551107  0.92697822  0.72553069    -0.65000
Ni417      Ni  0.23227933  0.08164355  0.74964688     1.34900
C418        C  0.18941850  0.94704878  0.72193991     0.86100
O419        O  0.28338305  0.03732554  0.69698170    -0.78000
O420        O  0.25821554  0.09031552  0.70816088    -0.88200
C421        C  0.30691581  0.94034196  0.71557251     0.85700
O422        O  0.27050271  0.07881914  0.78214915    -0.66400
O423        O  0.22467702  0.91365856  0.79967271    -0.85700
C424        C  0.29596704  0.05789388  0.78689312     0.86500
C425        C  0.27731578  0.07086654  0.68973952     1.08100
H426        H  0.26826846  0.97436691  0.79055800     0.39900
O427        O  0.25495717  0.97251442  0.76895217    -1.08400
O428        O  0.18650942  0.97631536  0.73918286    -0.65000
Ni429      Ni  0.21511165  0.99964552  0.77522564     1.26300
O430        O  0.29870501  0.02802750  0.77028846    -0.65300
O431        O  0.20217718  0.96747992  0.81205849    -0.77600
C432        C  0.17894209  0.06157380  0.79449165     0.85900
O433        O  0.17735927  0.03001249  0.78231888    -0.64700
Ni434      Ni  0.25223112  0.92222068  0.75969173     1.27400
Ni435      Ni  0.27094617  0.00421450  0.73355397     1.26100
H436        H  0.21768640  0.02909711  0.71850149     0.40400
O437        O  0.82745699  0.78860010  0.56000792    -0.79500
O438        O  0.73659727  0.67431038  0.48830792    -0.64200
O439        O  0.78535701  0.75883120  0.50718713    -1.10800
C440        C  0.69288955  0.79181969  0.57589274     1.07400
O441        O  0.68914827  0.70354532  0.47857247    -0.77400
O442        O  0.69004747  0.77747939  0.48347348    -0.65000
Ni443      Ni  0.83056351  0.75485196  0.52185687     1.34900
C444        C  0.70794639  0.80459914  0.48060287     0.86100
O445        O  0.79482601  0.69819956  0.46473495    -0.78000
O446        O  0.84086491  0.72404321  0.48271636    -0.88200
C447        C  0.70741861  0.67537383  0.47531713     0.85700
O448        O  0.82621722  0.71503928  0.55523319    -0.66400
O449        O  0.67769192  0.77018042  0.55589015    -0.85700
C450        C  0.80787147  0.68810857  0.55726110     0.86500
C451        C  0.82528252  0.70391431  0.46170160     1.08100
H452        H  0.73439761  0.72162138  0.55251748     0.39900
O453        O  0.73252312  0.73563436  0.53067388    -1.08400
O454        O  0.73361896  0.80827222  0.50030869    -0.65000
Ni455      Ni  0.75516704  0.77940810  0.53939698     1.26300
O456        O  0.78281314  0.68542994  0.53664146    -0.65300
O457        O  0.72328469  0.79765016  0.57275090    -0.77600
C458        C  0.81179631  0.81876718  0.55946260     0.85900
O459        O  0.78194375  0.82089701  0.54806124    -0.64700
Ni460      Ni  0.68707435  0.73813060  0.51708566     1.27400
Ni461      Ni  0.76263286  0.71559095  0.49802007     1.26100
H462        H  0.78402691  0.77302032  0.48541039     0.40400
O463        O  0.97536397  0.72214249  0.33950374    -0.79500
O464        O  0.05884877  0.77926266  0.21683151    -0.64200
O465        O  0.99553790  0.75576924  0.28292686    -1.10800
C466        C  0.96567375  0.68561840  0.18288323     1.07400
O467        O  0.02781020  0.76839409  0.16656338    -0.77400
O468        O  0.97566501  0.79911559  0.20665721    -0.65000
Ni469      Ni  0.01761249  0.73615029  0.32180144     1.34900
C470        C  0.94755993  0.79620531  0.21973788     0.86100
O471        O  0.04603417  0.79842768  0.28991271    -0.78000
O472        O  0.01812174  0.78389133  0.33906239    -0.88200
C473        C  0.05402249  0.77955790  0.18245052     0.85700
O474        O  0.02804009  0.69173756  0.29930717    -0.66400
O475        O  0.98517379  0.70598780  0.16648588    -0.85700
C476        C  0.05666805  0.69563308  0.28777637     0.86500
C477        C  0.03846691  0.80338522  0.32304484     1.08100
H478        H  0.02176854  0.71380984  0.21801893     0.39900
O479        O  0.00811742  0.73480040  0.22279132    -1.08400
O480        O  0.94272901  0.76567601  0.23560693    -0.65000
Ni481      Ni  0.97471732  0.72450386  0.25239159     1.26300
O482        O  0.06111411  0.72562907  0.27077139    -0.65300
O483        O  0.95772214  0.69152244  0.21585057    -0.77600
C484        C  0.94897219  0.71206549  0.32322018     0.85900
O485        O  0.94455695  0.71267311  0.28876015    -0.64700
Ni486      Ni  0.98567146  0.75420757  0.18410546     1.27400
Ni487      Ni  0.02888779  0.76627864  0.25332467     1.26100
H488        H  0.98186148  0.77672262  0.28774404     0.40400
O489        O  0.41685776  0.96714535  0.04032253    -0.79500
O490        O  0.51273236  0.07530838  0.97570782    -0.64200
O491        O  0.46064969  0.99371367  0.99296688    -1.10800
C492        C  0.55296320  0.96086140  0.07438736     1.07400
O493        O  0.55528661  0.03831227  0.96893365    -0.77400
O494        O  0.55550397  0.96632905  0.98049277    -0.65000
Ni495      Ni  0.41510214  0.00063228  0.00102271     1.34900
C496        C  0.53602751  0.94052006  0.97704706     0.86100
O497        O  0.45444140  0.05288401  0.94614926    -0.78000
O498        O  0.40639755  0.03199833  0.95934193    -0.88200
C499        C  0.54174183  0.06954476  0.96588452     0.85700
O500        O  0.41910877  0.04037072  0.03411763    -0.66400
O501        O  0.56896624  0.98002775  0.05361430    -0.85700
C502        C  0.43833202  0.06643850  0.03795494     0.86500
C503        C  0.42385021  0.05006527  0.93903931     1.08100
H504        H  0.51316647  0.02922221  0.04188720     0.39900
O505        O  0.51413585  0.01456513  0.02092490    -1.08400
O506        O  0.50988483  0.94026991  0.99420304    -0.65000
Ni507      Ni  0.49023140  0.97252573  0.02965855     1.26300
O508        O  0.46420073  0.06762926  0.02014505    -0.65300
O509        O  0.52228487  0.95534671  0.06785753    -0.77600
C510        C  0.43162921  0.93647731  0.04355452     0.85900
O511        O  0.46210817  0.93268740  0.03818907    -0.64700
Ni512      Ni  0.55912040  0.00822407  0.01061123     1.27400
Ni513      Ni  0.48476715  0.03565681  0.98461552     1.26100
H514        H  0.46203812  0.97915478  0.97197835     0.40400
C515        C  0.24804975  0.79618632  0.30109169     0.81600
N516        N  0.24733999  0.82309280  0.27647837    -0.76700
C517        C  0.26695154  0.82089896  0.24872550     0.84000
N518        N  0.28756052  0.79184758  0.24555405    -0.76700
C519        C  0.28808713  0.76476581  0.27010070     0.84100
N520        N  0.26838863  0.76694532  0.29808300    -0.78400
N521        N  0.41159312  0.68463900  0.31688197    -0.35200
N522        N  0.45093810  0.63357921  0.36181241    -0.55800
N523        N  0.41209487  0.57305787  0.34398473    -0.35200
N524        N  0.37104686  0.62514024  0.30013666    -0.55800
C525        C  0.42746782  0.70621766  0.33946571     0.28400
C526        C  0.38335752  0.70216883  0.30694450     0.28400
C527        C  0.42787614  0.56133508  0.37513802     0.28300
C528        C  0.38392744  0.55544184  0.33898608     0.28300
C529        C  0.47010152  0.66174721  0.35869683     0.37000
C530        C  0.47038726  0.60588653  0.37420255     0.37000
C531        C  0.35730157  0.65133743  0.27823546     0.37000
C532        C  0.35858959  0.59401771  0.28915931     0.37000
C533        C  0.40974642  0.73838343  0.34301636    -0.20500
C534        C  0.38178984  0.73589138  0.32221171    -0.20500
C535        C  0.40961184  0.53491899  0.38989808    -0.20500
C536        C  0.38215091  0.53110371  0.36717919    -0.20500
C537        C  0.50195867  0.65204873  0.36878607    -0.21600
C538        C  0.50224966  0.61634798  0.37821072    -0.21600
C539        C  0.33636381  0.63709477  0.25321099    -0.21600
C540        C  0.33717636  0.60100288  0.26008905    -0.21600
C541        C  0.45731790  0.69696788  0.35703860    -0.16900
C542        C  0.35926735  0.68825748  0.28440940    -0.16900
C543        C  0.36041383  0.56147443  0.30942775    -0.16900
C544        C  0.45822253  0.57477146  0.38938270    -0.16900
H545        H  0.41610118  0.76106507  0.35917729     0.16000
H546        H  0.36228633  0.75625623  0.31934115     0.16000
H547        H  0.41524555  0.52021316  0.41457276     0.16000
H548        H  0.36280350  0.51293825  0.37134822     0.16000
H549        H  0.52223354  0.66952477  0.37133749     0.14300
H550        H  0.52305970  0.60046856  0.38886432     0.14300
H551        H  0.32069229  0.65146426  0.23349951     0.14300
H552        H  0.32128742  0.58277880  0.24719682     0.14300
H553        H  0.41981365  0.65942052  0.30850254     0.27500
H554        H  0.42041228  0.59191728  0.32619412     0.27500
C555        C  0.45338872  0.95075751  0.26681543     0.81600
N556        N  0.44812586  0.97245474  0.29470548    -0.76700
C557        C  0.47064758  0.97337683  0.32186885     0.84000
N558        N  0.49834120  0.95262187  0.32117423    -0.76700
C559        C  0.50355230  0.93087629  0.29318919     0.84100
N560        N  0.48104590  0.92975146  0.26599650    -0.78400
N561        N  0.58934698  0.86330684  0.39046727    -0.35200
N562        N  0.64108708  0.88364679  0.34299347    -0.55800
N563        N  0.68786031  0.87394861  0.40329307    -0.35200
N564        N  0.63561319  0.84864024  0.44615974    -0.55800
C565        C  0.57437936  0.86011412  0.35821756     0.28400
C566        C  0.57097165  0.84711784  0.41440650     0.28400
C567        C  0.70697147  0.88377566  0.37658972     0.28300
C568        C  0.70515168  0.85078985  0.42624093     0.28300
C569        C  0.61388023  0.89200298  0.32255538     0.37000
C570        C  0.66404986  0.90567668  0.33178035     0.37000
C571        C  0.60915077  0.84926331  0.46603199     0.37000
C572        C  0.66152070  0.84562716  0.46887177     0.37000
C573        C  0.54597383  0.84190071  0.36154724    -0.20500
C574        C  0.54376504  0.83379297  0.39706471    -0.20500
C575        C  0.73767291  0.86758584  0.38317121    -0.20500
C576        C  0.73627693  0.84607087  0.41389222    -0.20500
C577        C  0.61981279  0.91816303  0.29751185    -0.21600
C578        C  0.65117405  0.92743386  0.30378023    -0.21600
C579        C  0.61808734  0.84668683  0.50183120    -0.21600
C580        C  0.65135024  0.84389451  0.50343088    -0.21600
C581        C  0.58314109  0.87788870  0.32710648    -0.16900
C582        C  0.57773051  0.84557551  0.45149923    -0.16900
C583        C  0.69290666  0.83564146  0.45829827    -0.16900
C584        C  0.69639967  0.90625063  0.34639400    -0.16900
H585        H  0.52812624  0.83622384  0.34067002     0.16000
H586        H  0.52396092  0.82037405  0.40861812     0.16000
H587        H  0.75849960  0.86990003  0.36682351     0.16000
H588        H  0.75607250  0.82958944  0.42611146     0.16000
H589        H  0.60283023  0.93062574  0.27783701     0.14300
H590        H  0.66227247  0.94876555  0.28958324     0.14300
H591        H  0.60242139  0.84433301  0.52407071     0.14300
H592        H  0.66634615  0.83836641  0.52688990     0.14300
H593        H  0.60952705  0.87835770  0.39603446     0.27500
H594        H  0.66412560  0.88378025  0.40571919     0.27500
N595        N  0.34062981  0.90895738  0.16499175    -0.35200
N596        N  0.30494856  0.87154443  0.10916134    -0.55800
N597        N  0.36407031  0.87321945  0.06662845    -0.35200
N598        N  0.39579645  0.91471405  0.12212882    -0.55800
C599        C  0.31059557  0.90986433  0.17772893     0.28400
C600        C  0.35858257  0.93118296  0.18491654     0.28400
C601        C  0.34136080  0.86041301  0.04338988     0.28300
C602        C  0.38609548  0.89136638  0.04793648     0.28300
C603        C  0.28701855  0.86474189  0.13764806     0.37000
C604        C  0.29960645  0.84453197  0.08633650     0.37000
C605        C  0.40986878  0.92308223  0.15360769     0.37000
C606        C  0.41997231  0.90940478  0.09970664     0.37000
C607        C  0.30908667  0.93352415  0.20582751    -0.20500
C608        C  0.33955096  0.94708750  0.21036922    -0.20500
C609        C  0.34968224  0.86921566  0.00909900    -0.20500
C610        C  0.37737709  0.88943034  0.01198814    -0.20500
C611        C  0.26958472  0.83409965  0.13237602    -0.21600
C612        C  0.27780700  0.82111739  0.10009086    -0.21600
C613        C  0.44335667  0.92354661  0.15117620    -0.21600
C614        C  0.44971516  0.91530466  0.11668549    -0.21600
C615        C  0.28733923  0.88461627  0.16923856    -0.16900
C616        C  0.39242043  0.93359152  0.18320693    -0.16900
C617        C  0.41428605  0.90816667  0.06294794    -0.16900
C618        C  0.31369761  0.84084055  0.05297375    -0.16900
H619        H  0.28871433  0.93873864  0.22254486     0.16000
H620        H  0.34724731  0.96516007  0.23105918     0.16000
H621        H  0.33662668  0.86265810  0.98464280     0.16000
H622        H  0.39004727  0.90069813  0.99009801     0.16000
H623        H  0.25338383  0.82170059  0.15036736     0.14300
H624        H  0.26938095  0.79655731  0.08864408     0.14300
H625        H  0.46116526  0.93061677  0.17156707     0.14300
H626        H  0.47328335  0.91501962  0.10509601     0.14300
H627        H  0.34934746  0.89077170  0.14669631     0.27500
H628        H  0.36466791  0.86866172  0.09397748     0.27500
C629        C  0.27870228  0.99753999  0.48954915     0.81600
N630        N  0.25418515  0.00602966  0.46540957    -0.76700
C631        C  0.22784153  0.98556130  0.46357417     0.84000
N632        N  0.22647772  0.95596936  0.48488649    -0.76700
C633        C  0.25123721  0.94760780  0.50863674     0.84100
N634        N  0.27741983  0.96823598  0.51079901    -0.78400
C635        C  0.47505206  0.75525005  0.44380371     0.81600
N636        N  0.50196530  0.77321459  0.45191803    -0.76700
C637        C  0.50331086  0.79433991  0.48076821     0.84000
N638        N  0.47734586  0.79773192  0.50167033    -0.76700
C639        C  0.45037761  0.77899613  0.49377839     0.84100
N640        N  0.44907342  0.75810128  0.46461283    -0.78400
N641        N  0.34018730  0.84453329  0.58080280    -0.35200
N642        N  0.39604828  0.82496242  0.62708614    -0.55800
N643        N  0.37519876  0.87848738  0.67959680    -0.35200
N644        N  0.31830309  0.89652905  0.63276160    -0.55800
C645        C  0.35387024  0.81881494  0.56078738     0.28400
C646        C  0.31049498  0.85318295  0.56608792     0.28400
C647        C  0.39544399  0.85608192  0.70021254     0.28300
C648        C  0.35569303  0.89808999  0.70135054     0.28300
C649        C  0.40395738  0.80538240  0.59847069     0.37000
C650        C  0.41939063  0.81723169  0.65252247     0.37000
C651        C  0.29762983  0.90520899  0.60488678     0.37000
C652        C  0.31746732  0.92490028  0.65467930     0.37000
C653        C  0.33260268  0.81058604  0.53289043    -0.20500
C654        C  0.30492219  0.83206998  0.53645953    -0.20500
C655        C  0.38956681  0.86296025  0.73567995    -0.20500
C656        C  0.36455852  0.88907700  0.73633981    -0.20500
C657        C  0.43212135  0.78471649  0.60573770    -0.21600
C658        C  0.44143613  0.79141516  0.64000652    -0.21600
C659        C  0.28342892  0.93926013  0.60932218    -0.21600
C660        C  0.29601219  0.95169009  0.64079394    -0.21600
C661        C  0.38565994  0.80420592  0.56615764    -0.16900
C662        C  0.29027913  0.88241172  0.57618905    -0.16900
C663        C  0.32999401  0.92354441  0.69005650    -0.16900
C664        C  0.41884386  0.82950465  0.68802198    -0.16900
H665        H  0.33676326  0.79141867  0.51202370     0.16000
H666        H  0.28372165  0.83313666  0.51842437     0.16000
H667        H  0.40173169  0.85025601  0.75891223     0.16000
H668        H  0.35394998  0.89996977  0.75993378     0.16000
H669        H  0.44375213  0.76518272  0.58883948     0.14300
H670        H  0.46142265  0.77696542  0.65390595     0.14300
H671        H  0.26542950  0.95356144  0.59209513     0.14300
H672        H  0.28900114  0.97685606  0.65291733     0.14300
H673        H  0.35154961  0.85741420  0.60166220     0.27500
H674        H  0.37484111  0.88060704  0.65201503     0.27500
N675        N  0.39946510  0.06328106  0.43320902    -0.35200
N676        N  0.42755304  0.11174151  0.38316195    -0.55800
N677        N  0.38300336  0.17161411  0.40368548    -0.35200
N678        N  0.35219807  0.12215291  0.45038759    -0.55800
C679        C  0.41672050  0.03940404  0.41401239     0.28400
C680        C  0.37674782  0.04468593  0.44936487     0.28400
C681        C  0.39582765  0.18612506  0.37413063     0.28300
C682        C  0.35722998  0.19306457  0.41353324     0.28300
C683        C  0.44810982  0.08272338  0.38026535     0.37000
C684        C  0.43980981  0.13835148  0.36379993     0.37000
C685        C  0.34435605  0.09614470  0.47356033     0.37000
C686        C  0.33605250  0.15253051  0.46025972     0.37000
C687        C  0.40579641  0.00509724  0.41932344    -0.20500
C688        C  0.38051280  0.00842893  0.44166768    -0.20500
C689        C  0.37807170  0.21781807  0.36537620    -0.20500
C690        C  0.35412954  0.22230375  0.39022454    -0.20500
C691        C  0.47361726  0.09080816  0.35930438    -0.21600
C692        C  0.46831208  0.12572878  0.34865427    -0.21600
C693        C  0.32304627  0.10974839  0.49790134    -0.21600
C694        C  0.31782052  0.14521184  0.48953344    -0.21600
C695        C  0.44163324  0.04768223  0.39132058    -0.16900
C696        C  0.35254607  0.05938121  0.47067058    -0.16900
C697        C  0.33652411  0.18656223  0.44284105    -0.16900
C698        C  0.42375202  0.17215221  0.35581400    -0.16900
H699        H  0.41468941  0.98029072  0.40779452     0.16000
H700        H  0.36620784  0.98663774  0.45073973     0.16000
H701        H  0.38203405  0.23603274  0.34345002     0.16000
H702        H  0.33608112  0.24425202  0.39063512     0.16000
H703        H  0.49318038  0.07288418  0.35107616     0.14300
H704        H  0.48334764  0.13916058  0.33039173     0.14300
H705        H  0.31186559  0.09538673  0.51908844     0.14300
H706        H  0.30183586  0.16305939  0.50342992     0.14300
H707        H  0.40297381  0.09060210  0.43546906     0.27500
H708        H  0.39220886  0.14875055  0.41718306     0.27500
N709        N  0.16259466  0.89494671  0.37211500    -0.35200
N710        N  0.10977703  0.93670767  0.39908484    -0.55800
N711        N  0.06329115  0.88343687  0.37720494    -0.35200
N712        N  0.11768774  0.83853685  0.35607785    -0.55800
C713        C  0.17866429  0.92218139  0.38694524     0.28400
C714        C  0.18390307  0.86650932  0.37102791     0.28400
C715        C  0.04711358  0.89981098  0.40363430     0.28300
C716        C  0.04809592  0.85303892  0.36852086     0.28300
C717        C  0.13114703  0.96290272  0.39670482     0.37000
C718        C  0.08152348  0.95261224  0.40822511     0.37000
C719        C  0.14589711  0.82095795  0.34855653     0.37000
C720        C  0.09367508  0.81911976  0.34169443     0.37000
C721        C  0.21097679  0.91129933  0.39408237    -0.20500
C722        C  0.21424609  0.87612210  0.38403027    -0.20500
C723        C  0.02056343  0.87975073  0.41130163    -0.20500
C724        C  0.02076766  0.85064520  0.38855760    -0.20500
C725        C  0.11651362  0.99580827  0.40429103    -0.21600
C726        C  0.08500648  0.98930154  0.41164932    -0.21600
C727        C  0.13990650  0.78956122  0.33073631    -0.21600
C728        C  0.10702197  0.78837594  0.32631533    -0.21600
C729        C  0.16468660  0.95624587  0.39474997    -0.16900
C730        C  0.17718762  0.83258356  0.35732643    -0.16900
C731        C  0.05986139  0.82720024  0.34413341    -0.16900
C732        C  0.05515874  0.93314181  0.41939987    -0.16900
H733        H  0.23021967  0.92679839  0.40569925     0.16000
H734        H  0.23640266  0.85941444  0.38630919     0.16000
H735        H  0.00260661  0.88573988  0.43079476     0.16000
H736        H  0.00361354  0.82945342  0.38814774     0.16000
H737        H  0.12793052  0.02137041  0.40608618     0.14300
H738        H  0.06707436  0.00939828  0.41895636     0.14300
H739        H  0.15738829  0.76949397  0.32181710     0.14300
H740        H  0.09471313  0.76639433  0.31414463     0.14300
H741        H  0.13868076  0.89619075  0.36234812     0.27500
H742        H  0.08343414  0.89261905  0.36476293     0.27500
O743        O  0.80237739  0.02195327  0.35370414    -0.79500
O744        O  0.70229491  0.96852515  0.22980640    -0.64200
O745        O  0.77372132  0.97921026  0.29941922    -1.10800
C746        C  0.79201133  0.06583721  0.20490400     1.07400
O747        O  0.72745920  0.98569269  0.17994541    -0.77400
O748        O  0.78419667  0.94904201  0.21417071    -0.65000
Ni749      Ni  0.76661064  0.98900632  0.34802263     1.34900
C750        C  0.81315186  0.94847328  0.22852087     0.86100
O751        O  0.71848894  0.93665658  0.29625408    -0.78000
O752        O  0.73360120  0.95352758  0.35124237    -0.88200
C753        C  0.70283757  0.97258085  0.19550693     0.85700
O754        O  0.73431989  0.02772317  0.33614189    -0.66400
O755        O  0.77041375  0.04836521  0.18696501    -0.85700
C756        C  0.70973184  0.03323740  0.31395421     0.86500
C757        C  0.71833180  0.93292754  0.33021517     1.08100
H758        H  0.74188813  0.03157430  0.23980321     0.39900
O759        O  0.75529852  0.00961629  0.24113505    -1.08400
O760        O  0.82046971  0.97542451  0.24830404    -0.65000
Ni761      Ni  0.79264964  0.01486008  0.26988722     1.26300
O762        O  0.70606993  0.01237121  0.28725486    -0.65300
O763        O  0.80565989  0.05177222  0.23459075    -0.77600
C764        C  0.82808906  0.02869475  0.33708869     0.85900
O765        O  0.82967936  0.02242793  0.30350850    -0.64700
Ni766      Ni  0.77193771  0.99737597  0.19819276     1.27400
Ni767      Ni  0.73592301  0.97421757  0.26744008     1.26100
H768        H  0.78682025  0.95706973  0.29905260     0.40400
O769        O  0.65851567  0.27316409  0.03709826    -0.79500
O770        O  0.76085915  0.22944863  0.93028730    -0.64200
O771        O  0.71090193  0.24474180  0.00997341    -1.10800
C772        C  0.79824433  0.31500514  0.04751508     1.07400
O773        O  0.80460222  0.21380309  0.96469082    -0.77400
O774        O  0.79983458  0.21714009  0.03863688    -0.65000
Ni775      Ni  0.67236366  0.26325247  0.98967506     1.34900
C776        C  0.78163462  0.21897185  0.06547747     0.86100
O777        O  0.69976505  0.20557969  0.95100194    -0.78000
O778        O  0.65807371  0.21530541  0.98737814    -0.88200
C779        C  0.78965011  0.21590604  0.93413096     0.85700
O780        O  0.68893552  0.30972535  0.98182435    -0.66400
O781        O  0.81534717  0.29072689  0.03210429    -0.85700
C782        C  0.69936430  0.30858743  0.95024087     0.86500
C783        C  0.67095777  0.19805258  0.96174718     1.08100
H784        H  0.76495446  0.29000935  0.97738875     0.39900
O785        O  0.76413550  0.26824986  0.99161280    -1.08400
O786        O  0.75740291  0.24196178  0.06569290    -0.65000
Ni787      Ni  0.73775230  0.27856059  0.03088028     1.26300
O788        O  0.71469184  0.27940435  0.94127896    -0.65300
O789        O  0.76707952  0.31427881  0.04884812    -0.77600
C790        C  0.67428216  0.28564330  0.06409460     0.85900
O791        O  0.70545613  0.28948688  0.06569413    -0.64700
Ni792      Ni  0.80756120  0.25123937  0.00002686     1.27400
Ni793      Ni  0.73404361  0.23722306  0.96957848     1.26100
H794        H  0.70931882  0.22309632  0.02425057     0.40400
C795        C  0.27895221  0.28658950  0.76141408     0.81600
N796        N  0.25188199  0.28765947  0.78071532    -0.76700
C797        C  0.23383516  0.31869108  0.78232479     0.84000
N798        N  0.24277028  0.34855602  0.76531686    -0.76700
C799        C  0.26984904  0.34769970  0.74657935     0.84100
N800        N  0.28826987  0.31673883  0.74456636    -0.78400
C801        C  0.48851738  0.31077063  0.94846012     0.81600
N802        N  0.46884456  0.28387103  0.93971264    -0.76700
C803        C  0.44108515  0.28002295  0.95697267     0.84000
N804        N  0.43279951  0.30321229  0.98267968    -0.76700
C805        C  0.45255675  0.33023994  0.99122223     0.84100
N806        N  0.48044949  0.33419444  0.97415763    -0.78400
C807        C  0.47017199  0.50089210  0.75149345     0.81600
N808        N  0.47309133  0.51581678  0.78385077    -0.76700
C809        C  0.50009689  0.50872798  0.80488566     0.84000
N810        N  0.52408040  0.48610918  0.79380223    -0.76700
C811        C  0.52125179  0.47128974  0.76104212     0.84100
N812        N  0.49403388  0.47816354  0.74016341    -0.78400
C813        C  0.22296763  0.49405658  0.94314233     0.81600
N814        N  0.25023105  0.49925726  0.92508337    -0.76700
C815        C  0.27941360  0.48598848  0.93839481     0.84000
N816        N  0.28139245  0.46788879  0.96978136    -0.76700
C817        C  0.25425974  0.46213494  0.98768991     0.84100
N818        N  0.22484364  0.47488488  0.97429613    -0.78400
N819        N  0.40626676  0.56014059  0.89635707    -0.35200
N820        N  0.34728057  0.60728706  0.90250335    -0.55800
N821        N  0.38557462  0.66949212  0.88871105    -0.35200
N822        N  0.44172943  0.62236045  0.87660120    -0.55800
C823        C  0.38277182  0.53591893  0.89488263     0.28400
C824        C  0.43320438  0.54409962  0.88347784     0.28400
C825        C  0.35556117  0.68501300  0.89210148     0.28300
C826        C  0.40312676  0.69192507  0.86901747     0.28300
C827        C  0.33812221  0.57562183  0.91589955     0.37000
C828        C  0.32815804  0.63280199  0.91736823     0.37000
C829        C  0.46676486  0.59778957  0.87972468     0.37000
C830        C  0.45471639  0.65444214  0.87063488     0.37000
C831        C  0.39496841  0.50373948  0.88186884    -0.20500
C832        C  0.42687597  0.50885868  0.87462814    -0.20500
C833        C  0.35413453  0.71850656  0.87544190    -0.20500
C834        C  0.38387903  0.72256826  0.86022445    -0.20500
C835        C  0.31281139  0.58090197  0.93856215    -0.21600
C836        C  0.30673670  0.61701599  0.93985538    -0.21600
C837        C  0.49590350  0.61429344  0.87589436    -0.21600
C838        C  0.48816187  0.65006148  0.87003755    -0.21600
C839        C  0.35129422  0.54173975  0.90700142    -0.16900
C840        C  0.46322279  0.56038630  0.87949456    -0.16900
C841        C  0.43644223  0.68614971  0.86047446    -0.16900
C842        C  0.33020933  0.67013150  0.91146325    -0.16900
H843        H  0.38224619  0.47914290  0.87812864     0.16000
H844        H  0.44344271  0.48883691  0.86397750     0.16000
H845        H  0.33366856  0.73775245  0.87407216     0.16000
H846        H  0.39085255  0.74591416  0.84535350     0.16000
H847        H  0.30060559  0.56094992  0.95363654     0.14300
H848        H  0.28888020  0.62959544  0.95632702     0.14300
H849        H  0.52004969  0.60165946  0.87581764     0.14300
H850        H  0.50523891  0.67029189  0.86553802     0.14300
H851        H  0.40428226  0.58575078  0.90680561     0.27500
H852        H  0.39374188  0.64545055  0.90084629     0.27500
N853        N  0.58054248  0.35677680  0.83423617    -0.35200
N854        N  0.63368586  0.39169484  0.80691489    -0.55800
N855        N  0.68013597  0.36858735  0.86585644    -0.35200
N856        N  0.62416467  0.33816033  0.89742273    -0.55800
C857        C  0.56542622  0.37803972  0.80883475     0.28400
C858        C  0.55914939  0.35195440  0.85964452     0.28400
C859        C  0.69383793  0.39902736  0.85358438     0.28300
C860        C  0.69225890  0.35956590  0.89923235     0.28300
C861        C  0.61431834  0.38968743  0.77732266     0.37000
C862        C  0.66362554  0.39785651  0.79626347     0.37000
C863        C  0.59721605  0.31916234  0.90149522     0.37000
C864        C  0.64877628  0.31837655  0.91392868     0.37000
C865        C  0.53342327  0.38552964  0.81754648    -0.20500
C866        C  0.52946998  0.36893457  0.84986070    -0.20500
C867        C  0.71599973  0.40944927  0.87993703    -0.20500
C868        C  0.71558100  0.38416351  0.90822602    -0.20500
C869        C  0.63170709  0.39507680  0.74732596    -0.21600
C870        C  0.66326718  0.39944351  0.75935271    -0.21600
C871        C  0.60429034  0.28776787  0.92053316    -0.21600
C872        C  0.63702123  0.28676555  0.92735106    -0.21600
C873        C  0.58050487  0.39104480  0.77869080    -0.16900
C874        C  0.56584321  0.33099121  0.89028891    -0.16900
C875        C  0.68075813  0.33020637  0.92054484    -0.16900
C876        C  0.68601713  0.41528433  0.81867140    -0.16900
H877        H  0.51486752  0.40136708  0.80247408     0.16000
H878        H  0.50737839  0.36937866  0.86446230     0.16000
H879        H  0.73121292  0.43238395  0.87879448     0.16000
H880        H  0.72983380  0.38476117  0.93301715     0.16000
H881        H  0.62210705  0.39809280  0.72021123     0.14300
H882        H  0.68293828  0.40779303  0.74354588     0.14300
H883        H  0.58772690  0.26729233  0.92765730     0.14300
H884        H  0.65063179  0.26473805  0.93999442     0.14300
H885        H  0.60408458  0.34543859  0.83414088     0.27500
H886        H  0.66314990  0.35375693  0.85182352     0.27500
N887        N  0.34499707  0.46062266  0.67032018    -0.35200
N888        N  0.31204092  0.41183286  0.61990624    -0.55800
N889        N  0.36646388  0.41534428  0.57316051    -0.35200
N890        N  0.39720029  0.46776960  0.62143368    -0.55800
C891        C  0.32149510  0.44920701  0.69106574     0.28400
C892        C  0.36567876  0.47884252  0.69151841     0.28400
C893        C  0.34566408  0.39564568  0.55286635     0.28300
C894        C  0.38958368  0.42833995  0.55199760     0.28300
C895        C  0.29204935  0.41012724  0.64739025     0.37000
C896        C  0.30163619  0.38753320  0.59607608     0.37000
C897        C  0.41127752  0.48322495  0.65012511     0.37000
C898        C  0.42077953  0.46314690  0.59794993     0.37000
C899        C  0.32609562  0.46220733  0.72521806    -0.20500
C900        C  0.35387419  0.48111160  0.72545217    -0.20500
C901        C  0.35616301  0.39554698  0.51834401    -0.20500
C902        C  0.38333078  0.41639084  0.51765625    -0.20500
C903        C  0.26802428  0.38599737  0.64018873    -0.21600
C904        C  0.27441874  0.37124541  0.60829752    -0.21600
C905        C  0.44376328  0.48870454  0.64458223    -0.21600
C906        C  0.44993211  0.47529420  0.61211781    -0.21600
C907        C  0.29792436  0.42448242  0.68143123    -0.16900
C908        C  0.39639424  0.49045839  0.68243373    -0.16900
C909        C  0.41651043  0.44981230  0.56317899    -0.16900
C910        C  0.31725003  0.37816658  0.56446819    -0.16900
H911        H  0.31158758  0.45738144  0.74800626     0.16000
H912        H  0.36498437  0.49351739  0.74851643     0.16000
H913        H  0.34484824  0.38262983  0.49570454     0.16000
H914        H  0.39678772  0.42209550  0.49430177     0.16000
H915        H  0.24894922  0.37808188  0.65723942     0.14300
H916        H  0.26105008  0.34969248  0.59683516     0.14300
H917        H  0.46170986  0.49998034  0.66249589     0.14300
H918        H  0.47364192  0.47405304  0.60077157     0.14300
H919        H  0.34751525  0.45449762  0.64387732     0.27500
H920        H  0.36567600  0.41867698  0.60040814     0.27500
N921        N  0.35065314  0.38638986  0.07831632    -0.35200
N922        N  0.30900556  0.40309108  0.13192266    -0.55800
N923        N  0.35364056  0.36896757  0.18747883    -0.35200
N924        N  0.39974189  0.35805010  0.13342064    -0.55800
C925        C  0.32721523  0.40695075  0.06080863     0.28400
C926        C  0.37873318  0.39197587  0.06258198     0.28400
C927        C  0.33822319  0.39551391  0.20627980     0.28300
C928        C  0.38007914  0.35466948  0.20646622     0.28300
C929        C  0.28649922  0.40193853  0.10513962     0.37000
C930        C  0.29347706  0.40208272  0.16236965     0.37000
C931        C  0.41291239  0.35099541  0.10183074     0.37000
C932        C  0.41016778  0.33069778  0.15571887     0.37000
C933        C  0.34046612  0.42536246  0.03297851    -0.20500
C934        C  0.37318522  0.41590129  0.03413566    -0.20500
C935        C  0.35534521  0.39785646  0.23871960    -0.20500
C936        C  0.38103601  0.37151894  0.23923915    -0.20500
C937        C  0.25575051  0.40056016  0.11836449    -0.21600
C938        C  0.26019324  0.40055703  0.15498896    -0.21600
C939        C  0.43203630  0.31956423  0.10396225    -0.21600
C940        C  0.42963459  0.30618970  0.13770963    -0.21600
C941        C  0.29440376  0.40870855  0.06997951    -0.16900
C942        C  0.40800956  0.37266728  0.07105026    -0.16900
C943        C  0.40368816  0.32892632  0.19248024    -0.16900
C944        C  0.30839470  0.41494619  0.19369850    -0.16900
H945        H  0.32815410  0.44403370  0.01422509     0.16000
H946        H  0.39080094  0.42515916  0.01591140     0.16000
H947        H  0.34952497  0.41578884  0.26013608     0.16000
H948        H  0.39918294  0.36667624  0.26058894     0.16000
H949        H  0.23273162  0.40167490  0.10335567     0.14300
H950        H  0.24116280  0.40246513  0.17394751     0.14300
H951        H  0.44535958  0.30685709  0.08300719     0.14300
H952        H  0.44101536  0.28103032  0.14731725     0.14300
H953        H  0.34734767  0.36788610  0.09875335     0.27500
H954        H  0.34644701  0.36011403  0.16236604     0.27500
N955        N  0.36441364  0.19301735  0.85314893    -0.35200
N956        N  0.39403238  0.13708815  0.90064087    -0.55800
N957        N  0.36895966  0.08035290  0.85475814    -0.35200
N958        N  0.33694266  0.13841471  0.81041516    -0.55800
C959        C  0.36946059  0.21174521  0.88303495     0.28400
C960        C  0.34301755  0.21262753  0.83214009     0.28400
C961        C  0.38078893  0.06187413  0.88470553     0.28300
C962        C  0.34372118  0.06271194  0.83864652     0.28300
C963        C  0.40797294  0.16743996  0.91172267     0.37000
C964        C  0.41574696  0.10975619  0.90890134     0.37000
C965        C  0.33370344  0.16667652  0.78729033     0.37000
C966        C  0.33132590  0.10889178  0.79124271     0.37000
C967        C  0.35132285  0.24397883  0.88106393    -0.20500
C968        C  0.33453962  0.24460413  0.84864008    -0.20500
C969        C  0.36319296  0.03088832  0.88704268    -0.20500
C970        C  0.33988418  0.03162949  0.85856502    -0.20500
C971        C  0.43843154  0.15987768  0.92707301    -0.21600
C972        C  0.44373367  0.12364991  0.92475284    -0.21600
C973        C  0.32608174  0.15526987  0.75331813    -0.21600
C974        C  0.32457529  0.11869317  0.75600643    -0.21600
C975        C  0.39274519  0.20173717  0.90974521    -0.16900
C976        C  0.33266994  0.20262321  0.79787732    -0.16900
C977        C  0.32533905  0.07486335  0.80622446    -0.16900
C978        C  0.40741000  0.07306736  0.90862760    -0.16900
H979        H  0.35085573  0.26509491  0.90054259     0.16000
H980        H  0.31823767  0.26620207  0.83836110     0.16000
H981        H  0.36641078  0.00998983  0.90730517     0.16000
H982        H  0.32231252  0.01142596  0.85309869     0.16000
H983        H  0.45528744  0.17857713  0.93835941     0.14300
H984        H  0.46613906  0.11029969  0.93416657     0.14300
H985        H  0.32066913  0.17164068  0.72961393     0.14300
H986        H  0.31758930  0.10111088  0.73503444     0.14300
H987        H  0.37663489  0.16925166  0.84629775     0.27500
H988        H  0.37852308  0.10391793  0.84533766     0.27500
N989        N  0.14617041  0.41793373  0.85155399    -0.35200
N990        N  0.09267174  0.45873244  0.87272527    -0.55800
N991        N  0.04297315  0.41109195  0.83953838    -0.35200
N992        N  0.09976578  0.36917885  0.82019110    -0.55800
C993        C  0.16007657  0.43848983  0.87645392     0.28400
C994        C  0.16395789  0.38691039  0.85077694     0.28400
C995        C  0.02921130  0.42349081  0.86963376     0.28300
C996        C  0.03146772  0.37829774  0.83089737     0.28300
C997        C  0.11534252  0.48340733  0.87739136     0.37000
C998        C  0.06347862  0.47575083  0.87385484     0.37000
C999        C  0.12858587  0.36013605  0.80644174     0.37000
C1000       C  0.07710899  0.36155995  0.79497518     0.37000
C1001       C  0.18781854  0.42048622  0.89123842    -0.20500
C1002       C  0.19026943  0.38768134  0.87480134    -0.20500
C1003       C  0.00747292  0.39816250  0.88007293    -0.20500
C1004       C  0.00851567  0.37001833  0.85538629    -0.20500
C1005       C  0.10069312  0.51713730  0.88126352    -0.21600
C1006       C  0.06763091  0.51231306  0.87880117    -0.21600
C1007       C  0.12464060  0.34722875  0.77242530    -0.21600
C1008       C  0.09190897  0.34892964  0.76506811    -0.21600
C1009       C  0.14810928  0.47321762  0.88467354    -0.16900
C1010       C  0.15777307  0.36003847  0.82631791    -0.16900
C1011       C  0.04461846  0.35631797  0.80296404    -0.16900
C1012       C  0.03745871  0.45690349  0.88660512    -0.16900
H1013       H  0.20451193  0.42962795  0.91172375     0.16000
H1014       H  0.20926601  0.36701124  0.87967038     0.16000
H1015       H  0.99270754  0.39953083  0.90317192     0.16000
H1016       H  0.99525894  0.34558820  0.85654896     0.16000
H1017       H  0.11242334  0.54184080  0.88767087     0.14300
H1018       H  0.04882885  0.53246200  0.88411232     0.14300
H1019       H  0.14322747  0.33719628  0.75517095     0.14300
H1020       H  0.07993496  0.34005314  0.74137102     0.14300
H1021       H  0.12646548  0.42542902  0.83437789     0.27500
H1022       H  0.06031131  0.42433784  0.82543517     0.27500
C1023       C  0.73600934  0.74310077  0.23183576     0.81600
N1024       N  0.74211859  0.72486607  0.26303454    -0.76700
C1025       C  0.76164015  0.69460068  0.26401448     0.84000
N1026       N  0.77391596  0.68194442  0.23367792    -0.76700
C1027       C  0.76761055  0.69993290  0.20247322     0.84100
N1028       N  0.74868238  0.73061175  0.20139728    -0.78400
N1029       N  0.68382510  0.59297916  0.32693821    -0.35200
N1030       N  0.62761689  0.57166362  0.36609806    -0.55800
N1031       N  0.65233390  0.60435141  0.43084825    -0.35200
N1032       N  0.70708628  0.62793687  0.39103597    -0.55800
C1033       C  0.66225101  0.58743905  0.29986532     0.28400
C1034       C  0.70630348  0.61429775  0.31400467     0.28400
C1035       C  0.62099845  0.59813319  0.43891870     0.28300
C1036       C  0.66369339  0.63152311  0.45151672     0.28300
C1037       C  0.62265331  0.55540104  0.33459620     0.37000
C1038       C  0.60680575  0.55736332  0.38860945     0.37000
C1039       C  0.73369089  0.62756051  0.37127378     0.37000
C1040       C  0.71746129  0.63450216  0.42469150     0.37000
C1041       C  0.67169492  0.60406419  0.26903899    -0.20500
C1042       C  0.69969520  0.62101065  0.27792785    -0.20500
C1043       C  0.61277260  0.62126507  0.46622592    -0.20500
C1044       C  0.63928773  0.64227058  0.47378522    -0.20500
C1045       C  0.59892953  0.53049810  0.33693070    -0.21600
C1046       C  0.58864588  0.53185853  0.37079344    -0.21600
C1047       C  0.76106502  0.63385445  0.39202210    -0.21600
C1048       C  0.75097658  0.63738559  0.42601578    -0.21600
C1049       C  0.63449519  0.56750422  0.30235842    -0.16900
C1050       C  0.73242547  0.62771683  0.33413709    -0.16900
C1051       C  0.69611078  0.64512039  0.45145534    -0.16900
C1052       C  0.60051991  0.57148919  0.42255317    -0.16900
H1053       H  0.65956964  0.60418026  0.24294204     0.16000
H1054       H  0.71325313  0.63679075  0.25983387     0.16000
H1055       H  0.59010088  0.62337965  0.47958389     0.16000
H1056       H  0.64047305  0.66269811  0.49390137     0.16000
H1057       H  0.58881957  0.51433186  0.31584940     0.14300
H1058       H  0.56864973  0.51672843  0.37945483     0.14300
H1059       H  0.78547312  0.63643471  0.38318414     0.14300
H1060       H  0.76686143  0.64160875  0.44876153     0.14300
H1061       H  0.68349177  0.58249857  0.35271276     0.27500
H1062       H  0.66578799  0.58966251  0.41285807     0.27500
C1063       C  0.71831005  0.48374183  0.10122284     0.81600
N1064       N  0.74969176  0.47225580  0.10589925    -0.76700
C1065       C  0.77154750  0.48105695  0.08188205     0.84000
N1066       N  0.76204416  0.50222468  0.05326087    -0.76700
C1067       C  0.73035603  0.51324685  0.04821457     0.84100
N1068       N  0.70842639  0.50396309  0.07223335    -0.78400
C1069       C  0.54307672  0.74873929  0.10134279     0.81600
N1070       N  0.56868510  0.74348852  0.08012963    -0.76700
C1071       C  0.56432300  0.72660109  0.04866822     0.84000
N1072       N  0.53468454  0.71491594  0.03860799    -0.76700
C1073       C  0.50923439  0.72088985  0.05954784     0.84100
N1074       N  0.51345256  0.73765131  0.09094026    -0.78400
C1075       C  0.55966195  0.54615720  0.24017829     0.81600
N1076       N  0.53271627  0.56832573  0.23761615    -0.76700
C1077       C  0.50334821  0.55432837  0.23032247     0.84000
N1078       N  0.50091893  0.51844813  0.22552945    -0.76700
C1079       C  0.52794236  0.49657854  0.22904074     0.84100
N1080       N  0.55714421  0.51047899  0.23620166    -0.78400
N1081       N  0.42069097  0.63364977  0.12681792    -0.35200
N1082       N  0.37581860  0.65041368  0.06909769    -0.55800
N1083       N  0.32589215  0.60734951  0.09947729    -0.35200
N1084       N  0.37193199  0.59410379  0.16143028    -0.55800
C1085       C  0.43535571  0.66025201  0.11010368     0.28400
C1086       C  0.43246532  0.63240174  0.16074587     0.28400
C1087       C  0.30763979  0.63129097  0.07838282     0.28300
C1088       C  0.30718519  0.59416337  0.12506640     0.28300
C1089       C  0.40370555  0.65790638  0.05373044     0.37000
C1090       C  0.35321367  0.64797278  0.04264869     0.37000
C1091       C  0.39967308  0.58314163  0.17948096     0.37000
C1092       C  0.35226922  0.56622394  0.16270461     0.37000
C1093       C  0.45686133  0.67630286  0.13377506    -0.20500
C1094       C  0.45506704  0.65850176  0.16595976    -0.20500
C1095       C  0.27626723  0.63285910  0.09035534    -0.20500
C1096       C  0.27585355  0.60913285  0.11950488    -0.20500
C1097       C  0.39909392  0.66032693  0.01713277    -0.21600
C1098       C  0.36687813  0.65396895  0.01009625    -0.21600
C1099       C  0.39776329  0.54838319  0.19243275    -0.21600
C1100       C  0.36789837  0.53730350  0.18109688    -0.21600
C1101       C  0.43133531  0.66764282  0.07342336    -0.16900
C1102       C  0.42624718  0.60487338  0.18480036    -0.16900
C1103       C  0.31892080  0.56925847  0.15279958    -0.16900
C1104       C  0.31985280  0.65074679  0.04889667    -0.16900
H1105       H  0.47260853  0.69801482  0.12837496     0.16000
H1106       H  0.46936470  0.66340268  0.19006737     0.16000
H1107       H  0.25587682  0.64925131  0.07931250     0.16000
H1108       H  0.25508683  0.60440472  0.13532877     0.16000
H1109       H  0.41659559  0.66754576  0.99787349     0.14300
H1110       H  0.35443625  0.65554188  0.98431535     0.14300
H1111       H  0.41608101  0.53256296  0.20791921     0.14300
H1112       H  0.35852867  0.51113021  0.18645137     0.14300
H1113       H  0.40564511  0.61515669  0.11481651     0.27500
H1114       H  0.35021145  0.59964444  0.09649732     0.27500
N1115       N  0.61053511  0.40123011  0.17103033    -0.35200
N1116       N  0.65166334  0.35837986  0.12577814    -0.55800
N1117       N  0.60534474  0.30094980  0.12630512    -0.35200
N1118       N  0.56729852  0.34401101  0.17707269    -0.55800
C1119       C  0.63791046  0.41953927  0.17275410     0.28400
C1120       C  0.59252259  0.41184826  0.19826088     0.28400
C1121       C  0.63084082  0.28446040  0.11072768     0.28300
C1122       C  0.58786454  0.27562067  0.14227099     0.28300
C1123       C  0.66243915  0.39177637  0.12073421     0.37000
C1124       C  0.65979652  0.33971345  0.09676006     0.37000
C1125       C  0.54797120  0.37245375  0.18534330     0.37000
C1126       C  0.54765741  0.31941823  0.16340311     0.37000
C1127       C  0.63784624  0.44194622  0.20186799    -0.20500
C1128       C  0.60894583  0.43697981  0.21819759    -0.20500
C1129       C  0.62898152  0.24758151  0.11553929    -0.20500
C1130       C  0.60215000  0.24202532  0.13610311    -0.20500
C1131       C  0.67768819  0.39418863  0.08866907    -0.21600
C1132       C  0.67584338  0.36131427  0.07338808    -0.21600
C1133       C  0.51568032  0.36595350  0.17774788    -0.21600
C1134       C  0.51550136  0.33218527  0.16355683    -0.21600
C1135       C  0.65992786  0.41956699  0.14553974    -0.16900
C1136       C  0.55994115  0.40312929  0.20114501    -0.16900
C1137       C  0.55845409  0.28343493  0.15992801    -0.16900
C1138       C  0.65481537  0.30280926  0.09206381    -0.16900
H1139       H  0.65603352  0.46080440  0.20960432     0.16000
H1140       H  0.60046688  0.45114393  0.24117763     0.16000
H1141       H  0.64545692  0.22695361  0.10576026     0.16000
H1142       H  0.59361564  0.21629371  0.14451567     0.16000
H1143       H  0.68871281  0.41720185  0.07710698     0.14300
H1144       H  0.68516822  0.35428545  0.04780923     0.14300
H1145       H  0.49465518  0.38350666  0.18208888     0.14300
H1146       H  0.49414550  0.31833443  0.15497663     0.14300
H1147       H  0.60287341  0.38547265  0.14992220     0.27500
H1148       H  0.59962754  0.32843412  0.12510218     0.27500
N1149       N  0.65333648  0.63133380  0.96263453    -0.35200
N1150       N  0.60947560  0.67164875  0.91206659    -0.55800
N1151       N  0.62710870  0.62288127  0.85618321    -0.35200
N1152       N  0.67416461  0.58510184  0.90652446    -0.55800
C1153       C  0.64665604  0.66096774  0.98163164     0.28400
C1154       C  0.67888283  0.61335305  0.97925900     0.28400
C1155       C  0.61102292  0.64977951  0.83709119     0.28300
C1156       C  0.64629291  0.60441642  0.83380983     0.28300
C1157       C  0.60016258  0.68557013  0.94318215     0.37000
C1158       C  0.58515375  0.67987996  0.88767417     0.37000
C1159       C  0.68637503  0.56558158  0.93495678     0.37000
C1160       C  0.67507214  0.56299651  0.87850099     0.37000
C1161       C  0.66830823  0.66198867  0.01084144    -0.20500
C1162       C  0.68866393  0.63172744  0.00940278    -0.20500
C1163       C  0.61960929  0.64781332  0.80186312    -0.20500
C1164       C  0.64194628  0.61934608  0.79984991    -0.20500
C1165       C  0.56990624  0.70307399  0.93855291    -0.21600
C1166       C  0.56039232  0.69948392  0.90351453    -0.21600
C1167       C  0.69530345  0.53101612  0.92495027    -0.21600
C1168       C  0.68812422  0.52935067  0.88911621    -0.21600
C1169       C  0.61940853  0.68458372  0.97515689    -0.16900
C1170       C  0.69141703  0.57938924  0.96927330    -0.16900
C1171       C  0.66647313  0.57355994  0.84307575    -0.16900
C1172       C  0.58777161  0.67472058  0.85065105    -0.16900
H1173       H  0.66876573  0.68189130  0.03153200     0.16000
H1174       H  0.70800631  0.62379421  0.02864458     0.16000
H1175       H  0.61065014  0.66479448  0.77970727     0.16000
H1176       H  0.65357406  0.61063528  0.77599654     0.16000
H1177       H  0.55632876  0.71766086  0.95813049     0.14300
H1178       H  0.53853344  0.71186863  0.89112308     0.14300
H1179       H  0.70614214  0.50939959  0.94161800     0.14300
H1180       H  0.69210170  0.50600608  0.87278267     0.14300
H1181       H  0.63945908  0.62226135  0.94121787     0.27500
H1182       H  0.62405878  0.61632206  0.88273416     0.27500
N1183       N  0.84611479  0.58535831  0.13622072    -0.35200
N1184       N  0.88880992  0.64516380  0.14773677    -0.55800
N1185       N  0.94542477  0.59829506  0.13664134    -0.35200
N1186       N  0.90101645  0.54070543  0.12234290    -0.55800
C1187       C  0.82403901  0.61314251  0.13288297     0.28400
C1188       C  0.83157256  0.55577863  0.12417759     0.28400
C1189       C  0.95870095  0.63084860  0.14058937     0.28300
C1190       C  0.96112437  0.57938596  0.11110995     0.28300
C1191       C  0.85961640  0.66114908  0.15450986     0.37000
C1192       C  0.91152240  0.66517474  0.16404365     0.37000
C1193       C  0.88020902  0.51441604  0.12624420     0.37000
C1194       C  0.93044017  0.52502103  0.11862589     0.37000
C1195       C  0.79469822  0.60115540  0.11956753    -0.20500
C1196       C  0.79938325  0.56497651  0.11415633    -0.20500
C1197       C  0.98460581  0.63237553  0.11824924    -0.20500
C1198       C  0.98551632  0.60039744  0.09892884    -0.20500
C1199       C  0.86375199  0.69204253  0.17381776    -0.21600
C1200       C  0.89628478  0.69448307  0.18010321    -0.21600
C1201       C  0.89644116  0.48108661  0.12533435    -0.21600
C1202       C  0.92848804  0.48786521  0.12028257    -0.21600
C1203       C  0.82899428  0.64828010  0.14430367    -0.16900
C1204       C  0.84662057  0.52089001  0.12249716    -0.16900
C1205       C  0.95399562  0.54321612  0.10080474    -0.16900
C1206       C  0.94577248  0.65897186  0.16249050    -0.16900
H1207       H  0.77212929  0.61675172  0.11475742     0.16000
H1208       H  0.78076866  0.54775035  0.10447005     0.16000
H1209       H  0.00013218  0.65477582  0.11484125     0.16000
H1210       H  0.00265189  0.59314151  0.07894509     0.16000
H1211       H  0.84528592  0.71078387  0.18305196     0.14300
H1212       H  0.90684421  0.71628426  0.19442179     0.14300
H1213       H  0.88591875  0.45492966  0.12531077     0.14300
H1214       H  0.94754673  0.46798236  0.11503920     0.14300
H1215       H  0.86933596  0.58629593  0.14775701     0.27500
H1216       H  0.92644349  0.58964059  0.15153398     0.27500
N1217       N  0.61783427  0.83849572  0.18906103    -0.35200
N1218       N  0.66706526  0.88917936  0.19036980    -0.55800
N1219       N  0.62629621  0.93758845  0.14068760    -0.35200
N1220       N  0.57340062  0.88712991  0.14431750    -0.55800
C1221       C  0.63939377  0.82240158  0.21282732     0.28400
C1222       C  0.58965758  0.82211438  0.19176334     0.28400
C1223       C  0.64823898  0.96073699  0.15525775     0.28300
C1224       C  0.60090209  0.95655105  0.12343676     0.28300
C1225       C  0.68538771  0.85935197  0.19960553     0.37000
C1226       C  0.68772554  0.91346359  0.17926709     0.37000
C1227       C  0.55800949  0.85562175  0.14299349     0.37000
C1228       C  0.56234388  0.90653171  0.11507008     0.37000
C1229       C  0.62456326  0.79574867  0.23151906    -0.20500
C1230       C  0.59294846  0.79553311  0.21809866    -0.20500
C1231       C  0.63657821  0.99540634  0.14667104    -0.20500
C1232       C  0.60743947  0.99278953  0.12625283    -0.20500
C1233       C  0.71797577  0.86482099  0.19509425    -0.21600
C1234       C  0.71947493  0.89930490  0.18228735    -0.21600
C1235       C  0.53647318  0.85562975  0.11376271    -0.21600
C1236       C  0.53962882  0.88714193  0.09584553    -0.21600
C1237       C  0.67282797  0.82816714  0.21391347    -0.16900
C1238       C  0.56411987  0.82549952  0.16609534    -0.16900
C1239       C  0.57235285  0.94143501  0.10552785    -0.16900
C1240       C  0.67894000  0.95002171  0.17416000    -0.16900
H1241       H  0.63580586  0.77724437  0.25129673     0.16000
H1242       H  0.57501711  0.77656028  0.22520638     0.16000
H1243       H  0.64819101  0.02002436  0.15359437     0.16000
H1244       H  0.59238008  0.01519027  0.11546323     0.16000
H1245       H  0.73846754  0.84624106  0.20101144     0.14300
H1246       H  0.74141298  0.91281417  0.17653988     0.14300
H1247       H  0.52083222  0.83448852  0.10523221     0.14300
H1248       H  0.52713977  0.89343693  0.07061430     0.14300
H1249       H  0.62297221  0.85635754  0.16885210     0.27500
H1250       H  0.62895306  0.90972763  0.14141979     0.27500
O1251       O  0.65678001  0.47638890  0.71118185    -0.79500
O1252       O  0.77016106  0.51281979  0.82430705    -0.64200
O1253       O  0.70656997  0.51674578  0.74519101    -1.10800
C1254       C  0.78827811  0.44017272  0.69511862     1.07400
O1255       O  0.80684523  0.52816145  0.78616043    -0.77400
O1256       O  0.80106133  0.52700032  0.71500341    -0.65000
Ni1257     Ni  0.66167635  0.50803671  0.75155871     1.34900
C1258       C  0.78055847  0.53677225  0.68993650     0.86100
O1259       O  0.70962982  0.54176550  0.81628522    -0.78000
O1260       O  0.65962187  0.54025959  0.79066052    -0.88200
C1261       C  0.79635330  0.52826835  0.81738101     0.85700
O1262       O  0.67002826  0.46741858  0.78363911    -0.66400
O1263       O  0.80771656  0.45302010  0.71846040    -0.85700
C1264       C  0.69294469  0.45297493  0.80399928     0.86500
C1265       C  0.67946792  0.55078740  0.81462945     1.08100
H1266       H  0.76050256  0.45882001  0.76506194     0.39900
O1267       O  0.76091814  0.48326189  0.75613943    -1.08400
O1268       O  0.75133041  0.52579692  0.68896830    -0.65000
Ni1269     Ni  0.73165401  0.48560455  0.71522753     1.26300
O1270       O  0.72011879  0.46808775  0.80869604    -0.65300
O1271       O  0.75875047  0.45195316  0.68968288    -0.77600
C1272       C  0.66941828  0.47507880  0.68078462     0.85900
O1273       O  0.69823030  0.48582373  0.67662893    -0.64700
Ni1274     Ni  0.80535963  0.49095664  0.75201888     1.27400
Ni1275     Ni  0.73621459  0.51255587  0.78682553     1.26100
H1276       H  0.70739618  0.54099763  0.73591330     0.40400
O1277       O  0.03990191  0.92675882  0.47969346    -0.79500
O1278       O  0.98704769  0.02411287  0.60093853    -0.64200
O1279       O  0.99460346  0.97274189  0.51423740    -1.10800
C1280       C  0.05800959  0.07338919  0.48595578     1.07400
O1281       O  0.97171685  0.07384088  0.57078591    -0.77400
O1282       O  0.97204305  0.07769557  0.49729097    -0.65000
Ni1283     Ni  0.00776214  0.92276368  0.51562324     1.34900
C1284       C  0.96917895  0.05891168  0.46902246     0.86100
O1285       O  0.96109786  0.96231013  0.57674161    -0.78000
O1286       O  0.97408782  0.91144205  0.54835051    -0.88200
C1287       C  0.97500666  0.05601373  0.60000088     0.85700
O1288       O  0.04164284  0.92606236  0.55320333    -0.66400
O1289       O  0.03981803  0.09127156  0.50649826    -0.85700
C1290       C  0.04628036  0.94516346  0.58104044     0.86500
C1291       C  0.95663766  0.92912970  0.56985238     1.08100
H1292       H  0.03957452  0.02851667  0.55103081     0.39900
O1293       O  0.01868848  0.03012270  0.53830294    -1.08400
O1294       O  0.98710482  0.03043752  0.46558293    -0.65000
Ni1295     Ni  0.02318503  0.00610373  0.49429222     1.26300
O1296       O  0.02836476  0.97323183  0.58606471    -0.65300
O1297       O  0.05364858  0.04034698  0.47822296    -0.77600
C1298       C  0.03888751  0.94652223  0.45165063     0.85900
O1299       O  0.02804571  0.97889209  0.45203934    -0.64700
Ni1300     Ni  0.00477778  0.07969983  0.53680738     1.27400
Ni1301     Ni  0.99093644  0.99662900  0.55886970     1.26100
H1302       H  0.97371855  0.97503097  0.50153606     0.40400
C1303       C  0.52120055  0.00189954  0.76526721     0.81600
N1304       N  0.49477781  0.02416577  0.76875150    -0.76700
C1305       C  0.46964895  0.02377955  0.74459095     0.84000
N1306       N  0.47127833  0.00199607  0.71611559    -0.76700
C1307       C  0.49766088  0.97968492  0.71268768     0.84100
N1308       N  0.52294944  0.98010522  0.73691603    -0.78400
C1309       C  0.77414341  0.00428924  0.57344695     0.81600
N1310       N  0.76361517  0.01772009  0.54095906    -0.76700
C1311       C  0.73120763  0.02231442  0.53335673     0.84000
N1312       N  0.70976075  0.01458134  0.55816935    -0.76700
C1313       C  0.72038521  0.00245517  0.59071044     0.84100
N1314       N  0.75250367  0.99689979  0.59833784    -0.78400
C1315       C  0.50446816  0.19474717  0.55984271     0.81600
N1316       N  0.50950037  0.16721593  0.53720468    -0.76700
C1317       C  0.53145943  0.17029159  0.51160055     0.84000
N1318       N  0.54828257  0.20067886  0.50868361    -0.76700
C1319       C  0.54277162  0.22810070  0.53116339     0.84100
N1320       N  0.52100893  0.22505834  0.55678754    -0.78400
N1321       N  0.62387053  0.08408303  0.43358640    -0.35200
N1322       N  0.57993238  0.11382308  0.37468523    -0.55800
N1323       N  0.63263306  0.10227689  0.32426511    -0.35200
N1324       N  0.67244963  0.06602904  0.38501383    -0.55800
C1325       C  0.59508195  0.08392462  0.44891224     0.28400
C1326       C  0.64540174  0.06407847  0.45426559     0.28400
C1327       C  0.60680464  0.11366635  0.30220520     0.28300
C1328       C  0.65362646  0.07885440  0.30741895     0.28300
C1329       C  0.56734972  0.12607766  0.40532703     0.37000
C1330       C  0.57375796  0.14047015  0.34996881     0.37000
C1331       C  0.68988812  0.07149767  0.41527238     0.37000
C1332       C  0.69092471  0.07593368  0.35847960     0.37000
C1333       C  0.59804544  0.06315491  0.47999065    -0.20500
C1334       C  0.63010893  0.05048292  0.48336962    -0.20500
C1335       C  0.61176260  0.09757203  0.26954801    -0.20500
C1336       C  0.64054082  0.07528421  0.27301789    -0.20500
C1337       C  0.55326617  0.16018181  0.40013880    -0.21600
C1338       C  0.55804915  0.16964071  0.36568103    -0.21600
C1339       C  0.71998518  0.08429263  0.40834402    -0.21600
C1340       C  0.72032766  0.08791817  0.37193718    -0.21600
C1341       C  0.56883025  0.10740797  0.43838744    -0.16900
C1342       C  0.67881999  0.06197035  0.44830843    -0.16900
C1343       C  0.68451706  0.06398165  0.32394743    -0.16900
C1344       C  0.57978077  0.13779920  0.31289405    -0.16900
H1345       H  0.57951730  0.05914820  0.49905228     0.16000
H1346       H  0.64112882  0.03452316  0.50531105     0.16000
H1347       H  0.59597328  0.10075751  0.24589926     0.16000
H1348       H  0.65095490  0.05925225  0.25225049     0.16000
H1349       H  0.54189600  0.17721004  0.41954678     0.14300
H1350       H  0.55090298  0.19557550  0.35397929     0.14300
H1351       H  0.73938224  0.09020494  0.42737564     0.14300
H1352       H  0.74035138  0.09642856  0.35684040     0.14300
H1353       H  0.62930020  0.10017328  0.41196510     0.27500
H1354       H  0.63609319  0.11131653  0.35016136     0.27500
N1355       N  0.40756141  0.14329406  0.66332391    -0.35200
N1356       N  0.35317927  0.10202377  0.68002656    -0.55800
N1357       N  0.31258132  0.13639172  0.62051900    -0.35200
N1358       N  0.36899419  0.18129382  0.60821366    -0.55800
C1359       C  0.41803281  0.12973565  0.69530226     0.28400
C1360       C  0.42799862  0.16846730  0.65401231     0.28400
C1361       C  0.29086245  0.12057542  0.64150824     0.28300
C1362       C  0.29824013  0.16572700  0.60317752     0.28300
C1363       C  0.37878239  0.08273082  0.69469480     0.37000
C1364       C  0.33165156  0.07814591  0.66870768     0.37000
C1365       C  0.39950825  0.18477043  0.59708859     0.37000
C1366       C  0.34923409  0.18530035  0.57884489     0.37000
C1367       C  0.44553620  0.14709632  0.70705248    -0.20500
C1368       C  0.45204796  0.17158616  0.68054751    -0.20500
C1369       C  0.26136306  0.13993484  0.63676928    -0.20500
C1370       C  0.26596339  0.16820577  0.61249606    -0.20500
C1371       C  0.37373118  0.04631521  0.69306314    -0.21600
C1372       C  0.34412651  0.04335738  0.67573150    -0.21600
C1373       C  0.39911049  0.19132627  0.56074525    -0.21600
C1374       C  0.36727006  0.19141836  0.54919481    -0.21600
C1375       C  0.40622740  0.09824348  0.70990737    -0.16900
C1376       C  0.42754583  0.18345236  0.61974499    -0.16900
C1377       C  0.31506119  0.18887931  0.57955711    -0.16900
C1378       C  0.29868082  0.08863167  0.66317235    -0.16900
H1379       H  0.46045746  0.14108085  0.73093557     0.16000
H1380       H  0.47282220  0.18839482  0.68001432     0.16000
H1381       H  0.23890134  0.13432774  0.64923514     0.16000
H1382       H  0.24777477  0.18838882  0.60321877     0.16000
H1383       H  0.38983207  0.02427233  0.70273774     0.14300
H1384       H  0.33274168  0.01835002  0.67001049     0.14300
H1385       H  0.41952727  0.19571426  0.54426971     0.14300
H1386       H  0.35836760  0.19600648  0.52211736     0.14300
H1387       H  0.38979906  0.13300781  0.64642731     0.27500
H1388       H  0.33647862  0.12694879  0.61762305     0.27500
C1389       C  0.74331585  0.20215630  0.69706650     0.81600
N1390       N  0.73575092  0.17762330  0.72205154    -0.76700
C1391       C  0.71096139  0.18516090  0.74363168     0.84000
N1392       N  0.69373663  0.21692026  0.74019377    -0.76700
C1393       C  0.70167426  0.24136936  0.71544956     0.84100
N1394       N  0.72631870  0.23393322  0.69372336    -0.78400
N1395       N  0.61913253  0.32734833  0.61516871    -0.35200
N1396       N  0.64502828  0.38673793  0.65412041    -0.55800
N1397       N  0.61423371  0.43934699  0.60386795    -0.35200
N1398       N  0.58526438  0.37719007  0.56814766    -0.55800
C1399       C  0.62600490  0.31129553  0.64695087     0.28400
C1400       C  0.59965875  0.30591218  0.59642450     0.28400
C1401       C  0.62535136  0.46010305  0.63092202     0.28300
C1402       C  0.58614797  0.45457201  0.58849512     0.28300
C1403       C  0.66174830  0.35769169  0.66863304     0.37000
C1404       C  0.66472015  0.41456340  0.65794366     0.37000
C1405       C  0.58793837  0.34823937  0.54720625     0.37000
C1406       C  0.58008612  0.40581094  0.54627364     0.37000
C1407       C  0.61073654  0.27882200  0.64864046    -0.20500
C1408       C  0.59403101  0.27532223  0.61637737    -0.20500
C1409       C  0.60439430  0.49024212  0.63225482    -0.20500
C1410       C  0.57955899  0.48657585  0.60591661    -0.20500
C1411       C  0.69197125  0.36678836  0.68175008    -0.21600
C1412       C  0.69386814  0.40268145  0.67469898    -0.21600
C1413       C  0.58428495  0.35817761  0.51168192    -0.21600
C1414       C  0.57976108  0.39498609  0.51103012    -0.21600
C1415       C  0.64919014  0.32348528  0.67162294    -0.16900
C1416       C  0.58944795  0.31313841  0.56095250    -0.16900
C1417       C  0.56833261  0.43923627  0.55866088    -0.16900
C1418       C  0.65399443  0.45095037  0.65342742    -0.16900
H1419       H  0.61247454  0.25920922  0.67024325     0.16000
H1420       H  0.58001178  0.25266293  0.60833895     0.16000
H1421       H  0.60636143  0.51219770  0.65064745     0.16000
H1422       H  0.55929934  0.50549820  0.60026107     0.16000
H1423       H  0.71039876  0.34960427  0.69555163     0.14300
H1424       H  0.71356585  0.41849012  0.68335819     0.14300
H1425       H  0.58410726  0.34072928  0.48891375     0.14300
H1426       H  0.57506344  0.41175734  0.48749853     0.14300
H1427       H  0.62939290  0.35032842  0.60533063     0.27500
H1428       H  0.62608116  0.41575197  0.59584904     0.27500
N1429       N  0.59955818  0.92590325  0.62755921    -0.35200
N1430       N  0.56504565  0.86586900  0.64498048    -0.55800
N1431       N  0.61917810  0.81576307  0.62835702    -0.35200
N1432       N  0.65759807  0.87587387  0.61831584    -0.55800
C1433       C  0.57256505  0.94165605  0.64065507     0.28400
C1434       C  0.62422644  0.94744919  0.63513896     0.28400
C1435       C  0.60476275  0.79714632  0.65441195     0.28300
C1436       C  0.64876855  0.79986682  0.62265273     0.28300
C1437       C  0.53930116  0.88890661  0.63892890     0.37000
C1438       C  0.55327214  0.83353088  0.65129821     0.37000
C1439       C  0.66774355  0.90881916  0.61005780     0.37000
C1440       C  0.67508246  0.85239617  0.59873777     0.37000
C1441       C  0.57997867  0.97444054  0.65542554    -0.20500
C1442       C  0.61277590  0.97801729  0.65203322    -0.20500
C1443       C  0.62555583  0.76830747  0.66508555    -0.20500
C1444       C  0.65295489  0.76954764  0.64445834    -0.20500
C1445       C  0.51063411  0.87108372  0.64095078    -0.21600
C1446       C  0.51958928  0.83594074  0.64905176    -0.21600
C1447       C  0.69207232  0.90635102  0.58581109    -0.21600
C1448       C  0.69615189  0.87081465  0.57801742    -0.21600
C1449       C  0.54198458  0.92612248  0.64081043    -0.16900
C1450       C  0.65619534  0.94107452  0.62495260    -0.16900
C1451       C  0.67251127  0.81461283  0.60038355    -0.16900
C1452       C  0.57273201  0.80516467  0.66678751    -0.16900
H1453       H  0.56371958  0.99343872  0.66804317     0.16000
H1454       H  0.62662174  0.00049104  0.66098673     0.16000
H1455       H  0.62125274  0.74819124  0.68520579     0.16000
H1456       H  0.67419563  0.75142277  0.64668263     0.16000
H1457       H  0.48604687  0.88263406  0.63932818     0.14300
H1458       H  0.50311643  0.81497643  0.65362811     0.14300
H1459       H  0.70470755  0.92797915  0.57377814     0.14300
H1460       H  0.71236187  0.86035117  0.55848209     0.14300
H1461       H  0.60107166  0.90211009  0.61342019     0.27500
H1462       H  0.60938075  0.83824234  0.61433469     0.27500
N1463       N  0.84420157  0.11070677  0.63573314    -0.35200
N1464       N  0.90090886  0.06747590  0.63216424    -0.55800
N1465       N  0.94103663  0.12444132  0.66249901    -0.35200
N1466       N  0.88303769  0.17089866  0.66073219    -0.55800
C1467       C  0.83347874  0.08365579  0.61550515     0.28400
C1468       C  0.82335013  0.13902989  0.62967470     0.28400
C1469       C  0.96249239  0.10518754  0.64327708     0.28300
C1470       C  0.95361806  0.15676648  0.66915958     0.28300
C1471       C  0.87963874  0.04136046  0.62860167     0.37000
C1472       C  0.93020782  0.05142603  0.63841659     0.37000
C1473       C  0.85220071  0.18285926  0.66643570     0.37000
C1474       C  0.90242186  0.18910395  0.68349254     0.37000
C1475       C  0.80520147  0.09508479  0.59645739    -0.20500
C1476       C  0.79867708  0.13015543  0.60570059    -0.20500
C1477       C  0.98955294  0.12536478  0.63829799    -0.20500
C1478       C  0.98426740  0.15771666  0.65553495    -0.20500
C1479       C  0.89531929  0.00786945  0.63265462    -0.21600
C1480       C  0.92768938  0.01437237  0.63878516    -0.21600
C1481       C  0.85193470  0.20906688  0.69196001    -0.21600
C1482       C  0.88343080  0.21273451  0.70293727    -0.21600
C1483       C  0.84778419  0.04860302  0.61583825    -0.16900
C1484       C  0.82400682  0.17057280  0.64912307    -0.16900
C1485       C  0.93696882  0.18528728  0.68613835    -0.16900
C1486       C  0.95809710  0.06964742  0.63121653    -0.16900
H1487       H  0.79045068  0.07979772  0.57826112     0.16000
H1488       H  0.77788209  0.14701068  0.59647749     0.16000
H1489       H  0.01101815  0.11736108  0.62426366     0.16000
H1490       H  0.00038528  0.17992076  0.65652910     0.16000
H1491       H  0.88492555  0.98182731  0.62946496     0.14300
H1492       H  0.94738288  0.99433749  0.64110575     0.14300
H1493       H  0.83113984  0.22351259  0.70235146     0.14300
H1494       H  0.89051323  0.23026951  0.72379850     0.14300
H1495       H  0.86310541  0.10938368  0.65498412     0.27500
H1496       H  0.91887589  0.11599705  0.67111344     0.27500
N1497       N  0.62484792  0.09404735  0.83295510    -0.35200
N1498       N  0.65436027  0.14482309  0.88132926    -0.55800
N1499       N  0.60254108  0.13586035  0.93205404    -0.35200
N1500       N  0.57610904  0.08198307  0.88343212    -0.55800
C1501       C  0.65234369  0.10025000  0.81632462     0.28400
C1502       C  0.61279589  0.06378212  0.81949458     0.28400
C1503       C  0.62628084  0.15100076  0.95247457     0.28300
C1504       C  0.58432088  0.11574115  0.95346542     0.28300
C1505       C  0.66621530  0.15450795  0.84976549     0.37000
C1506       C  0.65678006  0.17373086  0.90238449     0.37000
C1507       C  0.56392726  0.06384840  0.85549466     0.37000
C1508       C  0.55172587  0.08698323  0.90576652     0.37000
C1509       C  0.65794511  0.07379848  0.79146427    -0.20500
C1510       C  0.63290727  0.05049685  0.79361414    -0.20500
C1511       C  0.62252152  0.14116305  0.98770644    -0.20500
C1512       C  0.59630079  0.11873282  0.98829956    -0.20500
C1513       C  0.67616764  0.18955266  0.85074217    -0.21600
C1514       C  0.66983385  0.20188686  0.88389609    -0.21600
C1515       C  0.53152985  0.05712026  0.86005480    -0.21600
C1516       C  0.52381245  0.07180132  0.89190538    -0.21600
C1517       C  0.66994255  0.13137953  0.82081505    -0.16900
C1518       C  0.58266071  0.05030008  0.82788873    -0.16900
C1519       C  0.55721816  0.09523179  0.94175827    -0.16900
C1520       C  0.65074097  0.17334010  0.93911248    -0.16900
H1521       H  0.67749818  0.07203949  0.77314916     0.16000
H1522       H  0.62931369  0.02723606  0.77720290     0.16000
H1523       H  0.63751151  0.14863012  0.01049319     0.16000
H1524       H  0.58718888  0.10599246  0.01169651     0.16000
H1525       H  0.68689863  0.20469303  0.82979994     0.14300
H1526       H  0.67472966  0.22850037  0.89328412     0.14300
H1527       H  0.51545286  0.04207627  0.84300172     0.14300
H1528       H  0.50097472  0.06930384  0.90453232     0.14300
H1529       H  0.61375547  0.11142142  0.85049165     0.27500
H1530       H  0.59856992  0.13965262  0.90469207     0.27500
C1531       C  0.04468587  0.72032216  0.55693758     0.81600
N1532       N  0.02343763  0.70630554  0.57926537    -0.76700
C1533       C  0.00735723  0.67680855  0.56959402     0.84000
N1534       N  0.01234416  0.66141324  0.53773695    -0.76700
C1535       C  0.03348239  0.67577166  0.51553326     0.84100
N1536       N  0.04983430  0.70503742  0.52521622    -0.78400
N1537       N  0.13077906  0.61389806  0.42512618    -0.35200
N1538       N  0.17839100  0.59849967  0.37565692    -0.55800
N1539       N  0.13918236  0.63964530  0.31636311    -0.35200
N1540       N  0.08855197  0.64922278  0.36845463    -0.55800
C1541       C  0.15087645  0.59052848  0.44387566     0.28400
C1542       C  0.10151224  0.61306552  0.43933380     0.28400
C1543       C  0.15870388  0.61520703  0.29899039     0.28300
C1544       C  0.11201056  0.65049235  0.29578783     0.28300
C1545       C  0.19651554  0.59820135  0.40634797     0.37000
C1546       C  0.19758619  0.60833222  0.34962539     0.37000
C1547       C  0.07626411  0.65987812  0.39960272     0.37000
C1548       C  0.08296236  0.67727232  0.34548330     0.37000
C1549       C  0.13422636  0.57437171  0.47063571    -0.20500
C1550       C  0.10275118  0.58869396  0.46771662    -0.20500
C1551       C  0.14353606  0.61073144  0.26565351    -0.20500
C1552       C  0.11476353  0.63312625  0.26345685    -0.20500
C1553       C  0.22791787  0.60738495  0.40016801    -0.21600
C1554       C  0.22847925  0.61457153  0.36408198    -0.21600
C1555       C  0.06302022  0.69455597  0.39665602    -0.21600
C1556       C  0.06807298  0.70587149  0.36265040    -0.21600
C1557       C  0.18431526  0.58704284  0.43871382    -0.16900
C1558       C  0.07604100  0.63798031  0.43026405    -0.16900
C1559       C  0.08559371  0.67460942  0.30818339    -0.16900
C1560       C  0.18980398  0.59925132  0.31412863    -0.16900
H1561       H  0.14393257  0.55523060  0.49068564     0.16000
H1562       H  0.08342956  0.58304326  0.48532612     0.16000
H1563       H  0.15230177  0.59352569  0.24487228     0.16000
H1564       H  0.09746414  0.63536512  0.24101131     0.16000
H1565       H  0.24814876  0.60829664  0.41938301     0.14300
H1566       H  0.24976597  0.62074648  0.34960355     0.14300
H1567       H  0.05165249  0.71026584  0.41708231     0.14300
H1568       H  0.06157963  0.73218588  0.35175904     0.14300
H1569       H  0.13740075  0.63210013  0.40571419     0.27500
H1570       H  0.14437512  0.64912601  0.34183545     0.27500
C1571       C  0.26237561  0.66787033  0.72966234     0.81600
N1572       N  0.25338892  0.70205432  0.71992451    -0.76700
C1573       C  0.22186755  0.71319077  0.72090390     0.84000
N1574       N  0.19933994  0.69018395  0.73102900    -0.76700
C1575       C  0.20842595  0.65579124  0.74001505     0.84100
N1576       N  0.24003301  0.64462630  0.73972264    -0.78400
C1577       C  0.23210016  0.54281228  0.52634526     0.81600
N1578       N  0.26475368  0.53837281  0.53213308    -0.76700
C1579       C  0.27688645  0.52353550  0.56331768     0.84000
N1580       N  0.25672980  0.51435956  0.58894639    -0.76700
C1581       C  0.22430491  0.51921908  0.58355860     0.84100
N1582       N  0.21175798  0.53300488  0.55202143    -0.78400
N1583       N  0.36401819  0.59445096  0.65098796    -0.35200
N1584       N  0.40135401  0.65262523  0.68015540    -0.55800
N1585       N  0.45017975  0.64256959  0.62598280    -0.35200
N1586       N  0.41148875  0.57994181  0.60015635    -0.55800
C1587       C  0.34813196  0.60171516  0.68064458     0.28400
C1588       C  0.35314409  0.56346328  0.63820012     0.28400
C1589       C  0.46602649  0.66253993  0.65131812     0.28300
C1590       C  0.47186240  0.62244387  0.60739531     0.28300
C1591       C  0.37052324  0.66095855  0.68835508     0.37000
C1592       C  0.41531090  0.68415088  0.67500174     0.37000
C1593       C  0.38666878  0.56163958  0.58577971     0.37000
C1594       C  0.43145731  0.58571589  0.57359559     0.37000
C1595       C  0.32699673  0.57464369  0.68741735    -0.20500
C1596       C  0.32982837  0.55063848  0.66010004    -0.20500
C1597       C  0.49910631  0.65523592  0.64829187    -0.20500
C1598       C  0.50276128  0.63036565  0.62060995    -0.20500
C1599       C  0.36471452  0.69785118  0.68879112    -0.21600
C1600       C  0.39314916  0.71268056  0.67964560    -0.21600
C1601       C  0.39103143  0.55501731  0.55023289    -0.21600
C1602       C  0.41928028  0.57046886  0.54233542    -0.21600
C1603       C  0.34849646  0.63512500  0.69714514    -0.16900
C1604       C  0.36047959  0.55011277  0.60471931    -0.16900
C1605       C  0.46307565  0.59820998  0.57875958    -0.16900
C1606       C  0.44923049  0.68642441  0.67569972    -0.16900
H1607       H  0.30976912  0.57363940  0.70831571     0.16000
H1608       H  0.31524905  0.52747369  0.65584494     0.16000
H1609       H  0.51854019  0.66644420  0.66423227     0.16000
H1610       H  0.52556470  0.61906016  0.61166146     0.16000
H1611       H  0.34247352  0.71239931  0.69517929     0.14300
H1612       H  0.39780409  0.74106892  0.67880888     0.14300
H1613       H  0.37568052  0.54032639  0.53202738     0.14300
H1614       H  0.43012530  0.56938074  0.51664748     0.14300
H1615       H  0.37859570  0.61205245  0.63805947     0.27500
H1616       H  0.42513991  0.64305983  0.62074181     0.27500
C1617       C  0.99367308  0.53822208  0.79586286     0.81600
N1618       N  0.02138014  0.51812565  0.79146014    -0.76700
C1619       C  0.02055766  0.48770504  0.77234482     0.84000
N1620       N  0.99219087  0.47806551  0.75650643    -0.76700
C1621       C  0.96442594  0.49793927  0.76091603     0.84100
N1622       N  0.96532398  0.52853196  0.78006496    -0.78400
N1623       N  0.13119816  0.43541130  0.67589069    -0.35200
N1624       N  0.16593874  0.38903503  0.62637093    -0.55800
N1625       N  0.11655253  0.33455053  0.63202091    -0.35200
N1626       N  0.08533160  0.38097374  0.68456163    -0.55800
C1627       C  0.15768420  0.45428923  0.67122907     0.28400
C1628       C  0.11764969  0.44699603  0.70588754     0.28400
C1629       C  0.14108681  0.31548753  0.61653127     0.28300
C1630       C  0.09784128  0.31154445  0.65011259     0.28300
C1631       C  0.17697087  0.42195421  0.61846475     0.37000
C1632       C  0.17262664  0.36801456  0.59821153     0.37000
C1633       C  0.07044295  0.40942236  0.69966620     0.37000
C1634       C  0.06187995  0.35877787  0.67444004     0.37000
C1635       C  0.16137873  0.47859326  0.69855448    -0.20500
C1636       C  0.13609024  0.47362868  0.72091147    -0.20500
C1637       C  0.13733612  0.27928073  0.62412904    -0.20500
C1638       C  0.11049094  0.27686034  0.64554181    -0.20500
C1639       C  0.19097577  0.42163794  0.58571077    -0.21600
C1640       C  0.18814137  0.38797961  0.57289761    -0.21600
C1641       C  0.03722613  0.40555556  0.69932203    -0.21600
C1642       C  0.03172614  0.37364941  0.68295049    -0.21600
C1643       C  0.17560270  0.45236467  0.64052820    -0.16900
C1644       C  0.08718027  0.43671632  0.71676293    -0.16900
C1645       C  0.06908577  0.32210842  0.66895804    -0.16900
C1646       C  0.16598299  0.33081771  0.59555508    -0.16900
H1647       H  0.17981905  0.49831468  0.70150647     0.16000
H1648       H  0.13097390  0.48899088  0.74439566     0.16000
H1649       H  0.15263601  0.25692302  0.61570959     0.16000
H1650       H  0.10110167  0.25233157  0.65600908     0.16000
H1651       H  0.20190349  0.44342961  0.57192547     0.14300
H1652       H  0.19615335  0.38019377  0.54705828     0.14300
H1653       H  0.01895577  0.42347387  0.71017811     0.14300
H1654       H  0.00822330  0.36225106  0.67929564     0.14300
H1655       H  0.12152760  0.41798805  0.65735909     0.27500
H1656       H  0.11217758  0.36221697  0.62939460     0.27500
N1657       N  0.91362654  0.57952281  0.64454478    -0.35200
N1658       N  0.87435686  0.63560463  0.60480069    -0.55800
N1659       N  0.81274449  0.60123707  0.61645021    -0.35200
N1660       N  0.85445023  0.54923662  0.66162307    -0.55800
C1661       C  0.93472682  0.60583031  0.64271816     0.28400
C1662       C  0.92348459  0.55790328  0.67222261     0.28400
C1663       C  0.80256396  0.63466076  0.60445623     0.28300
C1664       C  0.79181670  0.58845854  0.64046340     0.28300
C1665       C  0.90502059  0.63903596  0.59396360     0.37000
C1666       C  0.85450851  0.64857943  0.57764446     0.37000
C1667       C  0.87616073  0.52159183  0.66808276     0.37000
C1668       C  0.82621551  0.53481618  0.65195417     0.37000
C1669       C  0.95915831  0.60071406  0.66899047    -0.20500
C1670       C  0.95194220  0.57023330  0.68792953    -0.20500
C1671       C  0.77345550  0.64330088  0.62043848    -0.20500
C1672       C  0.76700703  0.61450825  0.64357874    -0.20500
C1673       C  0.90476850  0.65383391  0.56006056    -0.21600
C1674       C  0.87286222  0.65934061  0.54949393    -0.21600
C1675       C  0.86192707  0.48910360  0.66330897    -0.21600
C1676       C  0.83036505  0.49776511  0.65198207    -0.21600
C1677       C  0.93320368  0.63181162  0.61557219    -0.16900
C1678       C  0.90753183  0.52677417  0.68155848    -0.16900
C1679       C  0.79658997  0.55347011  0.65778597    -0.16900
C1680       C  0.82068094  0.65613684  0.58032138    -0.16900
H1681       H  0.98004969  0.61693497  0.67368590     0.16000
H1682       H  0.96629644  0.55840403  0.71014403     0.16000
H1683       H  0.75898094  0.66811523  0.61682117     0.16000
H1684       H  0.74645731  0.61297420  0.66043862     0.16000
H1685       H  0.92542043  0.66021104  0.54464350     0.14300
H1686       H  0.86432016  0.67123293  0.52431409     0.14300
H1687       H  0.87296058  0.46241356  0.66768125     0.14300
H1688       H  0.81169496  0.47939189  0.64630520     0.14300
H1689       H  0.89441199  0.57554760  0.62634111     0.27500
H1690       H  0.83347064  0.58738171  0.60797687     0.27500
N1691       N  0.13645407  0.81433616  0.63941347    -0.35200
N1692       N  0.08920903  0.86630499  0.61108443    -0.55800
N1693       N  0.11291839  0.92349710  0.65918866    -0.35200
N1694       N  0.16353316  0.86804599  0.68413493    -0.55800
C1695       C  0.12522118  0.79733576  0.61052754     0.28400
C1696       C  0.16527462  0.79855091  0.64940273     0.28400
C1697       C  0.09549055  0.94259272  0.63276016     0.28300
C1698       C  0.13706680  0.94344315  0.67421227     0.28300
C1699       C  0.07556005  0.83488333  0.60331843     0.37000
C1700       C  0.06446607  0.89072243  0.61334677     0.37000
C1701       C  0.17411138  0.83696471  0.70045686     0.37000
C1702       C  0.16094942  0.89253804  0.70986690     0.37000
C1703       C  0.14728246  0.77017765  0.60150916    -0.20500
C1704       C  0.17291624  0.77097586  0.62631952    -0.20500
C1705       C  0.10839362  0.97651947  0.63156323    -0.20500
C1706       C  0.13437589  0.97703203  0.65740915    -0.20500
C1707       C  0.04210103  0.83910451  0.60035108    -0.21600
C1708       C  0.03501977  0.87450798  0.60709066    -0.21600
C1709       C  0.17866617  0.84147146  0.73670363    -0.21600
C1710       C  0.16977798  0.87673378  0.74279159    -0.21600
C1711       C  0.09363412  0.80336958  0.59632877    -0.16900
C1712       C  0.18122158  0.80551820  0.68190604    -0.16900
C1713       C  0.16045957  0.92968449  0.70217532    -0.16900
C1714       C  0.06897252  0.92791718  0.61087379    -0.16900
H1715       H  0.14451060  0.75098295  0.58037322     0.16000
H1716       H  0.19388354  0.75242659  0.62820797     0.16000
H1717       H  0.10034571  0.99845900  0.61371100     0.16000
H1718       H  0.14964463  0.99942140  0.66279470     0.16000
H1719       H  0.02477972  0.81907007  0.59328508     0.14300
H1720       H  0.01111406  0.88743238  0.60498574     0.14300
H1721       H  0.18767453  0.82163891  0.75643694     0.14300
H1722       H  0.17138458  0.88997703  0.76813788     0.14300
H1723       H  0.12339754  0.83311639  0.65399981     0.27500
H1724       H  0.10828920  0.89729218  0.66697200     0.27500
N1725       N  0.09576381  0.62502361  0.83151590    -0.35200
N1726       N  0.06342991  0.61101969  0.89350510    -0.55800
N1727       N  0.12156295  0.61830618  0.93915246    -0.35200
N1728       N  0.15748386  0.62478104  0.87652013    -0.55800
C1729       C  0.06656745  0.61500864  0.81811437     0.28400
C1730       C  0.11806338  0.61543868  0.80787429     0.28400
C1731       C  0.10520101  0.59447742  0.95862547     0.28300
C1732       C  0.15236053  0.61926093  0.95277954     0.28300
C1733       C  0.03754203  0.62211849  0.87289647     0.37000
C1734       C  0.05348238  0.60802345  0.92672235     0.37000
C1735       C  0.16779145  0.63136088  0.84355717     0.37000
C1736       C  0.17950839  0.63890415  0.89957570     0.37000
C1737       C  0.07025943  0.60021434  0.78478673    -0.20500
C1738       C  0.10284355  0.60058211  0.77828288    -0.20500
C1739       C  0.12618657  0.58069208  0.98587982    -0.20500
C1740       C  0.15574060  0.59705676  0.98260984    -0.20500
C1741       C  0.01042451  0.62630545  0.89314093    -0.21600
C1742       C  0.02062184  0.61746027  0.92761048    -0.21600
C1743       C  0.19715420  0.64840441  0.84578795    -0.21600
C1744       C  0.20420150  0.65382530  0.88126674    -0.21600
C1745       C  0.03719834  0.61756672  0.83619134    -0.16900
C1746       C  0.15139030  0.62183999  0.81149862    -0.16900
C1747       C  0.17751187  0.63806117  0.93698134    -0.16900
C1748       C  0.07166803  0.58685641  0.95200529    -0.16900
H1749       H  0.05158448  0.58977724  0.76719366     0.16000
H1750       H  0.11411666  0.59072881  0.75462661     0.16000
H1751       H  0.12082560  0.56178377  0.00666994     0.16000
H1752       H  0.17756635  0.59196816  0.99923847     0.16000
H1753       H  0.98568652  0.63190751  0.88336474     0.14300
H1754       H  0.00533631  0.61523536  0.95015518     0.14300
H1755       H  0.21164796  0.65691381  0.82411893     0.14300
H1756       H  0.22533779  0.66667866  0.89228538     0.14300
H1757       H  0.10035726  0.63837630  0.85519230     0.27500
H1758       H  0.11252185  0.63386624  0.91748550     0.27500
C1759       C  0.73898215  0.28164896  0.26454046     0.81600
N1760       N  0.75205134  0.31335609  0.25706492    -0.76700
C1761       C  0.78447406  0.31557399  0.25608668     0.84000
N1762       N  0.80411051  0.28581839  0.26154573    -0.76700
C1763       C  0.79114650  0.25392362  0.26908444     0.84100
N1764       N  0.75842843  0.25173772  0.27120317    -0.78400
N1765       N  0.64253811  0.37298515  0.32075002    -0.35200
N1766       N  0.59639622  0.41578414  0.36187884    -0.55800
N1767       N  0.55163204  0.35615887  0.35787108    -0.35200
N1768       N  0.59837752  0.31766312  0.31223153    -0.55800
C1769       C  0.65586773  0.40522100  0.32089607     0.28400
C1770       C  0.65698026  0.35330032  0.29561368     0.28400
C1771       C  0.53289033  0.38242843  0.37302568     0.28300
C1772       C  0.53216748  0.33262462  0.34033027     0.28300
C1773       C  0.62451443  0.43237186  0.36892790     0.37000
C1774       C  0.57722356  0.42386382  0.38919955     0.37000
C1775       C  0.62581434  0.29951342  0.30357111     0.37000
C1776       C  0.57705947  0.29277516  0.31978720     0.37000
C1777       C  0.67900566  0.40657304  0.29523511    -0.20500
C1778       C  0.67961005  0.37358775  0.27899642    -0.20500
C1779       C  0.50057496  0.37468864  0.36603439    -0.20500
C1780       C  0.50013050  0.34386650  0.34500559    -0.20500
C1781       C  0.62285946  0.45166868  0.40002514    -0.21600
C1782       C  0.59314409  0.44603799  0.41302662    -0.21600
C1783       C  0.62203561  0.26283014  0.30507017    -0.21600
C1784       C  0.59091385  0.25852966  0.31522193    -0.21600
C1785       C  0.65230462  0.42947393  0.34853202    -0.16900
C1786       C  0.65292212  0.31630782  0.29141580    -0.16900
C1787       C  0.54367528  0.30096180  0.32181809    -0.16900
C1788       C  0.54506401  0.41279980  0.39256653    -0.16900
H1789       H  0.69492120  0.42831557  0.29022568     0.16000
H1790       H  0.69587148  0.36495722  0.25863196     0.16000
H1791       H  0.47948765  0.39009485  0.37444982     0.16000
H1792       H  0.47869209  0.33090942  0.33490368     0.16000
H1793       H  0.64135135  0.46769936  0.41243558     0.14300
H1794       H  0.58461162  0.45668051  0.43772182     0.14300
H1795       H  0.63938101  0.24160937  0.29836534     0.14300
H1796       H  0.57924840  0.23322491  0.31730213     0.14300
H1797       H  0.62746326  0.36364531  0.33998891     0.27500
H1798       H  0.57684680  0.35402701  0.36023724     0.27500
C1799       C  0.77662908  0.47668915  0.43116414     0.81600
N1800       N  0.78099744  0.45273448  0.45851026    -0.76700
C1801       C  0.76033548  0.42556780  0.46151835     0.84000
N1802       N  0.73539231  0.42247502  0.43712590    -0.76700
C1803       C  0.73145294  0.44671546  0.40972617     0.84100
N1804       N  0.75196745  0.47369471  0.40687112    -0.78400
C1805       C  0.98421471  0.45862169  0.23685418     0.81600
N1806       N  0.95702928  0.48036564  0.23707530    -0.76700
C1807       C  0.95657489  0.51006134  0.25716363     0.84000
N1808       N  0.98312103  0.51773342  0.27766326    -0.76700
C1809       C  0.01042298  0.49626800  0.27721256     0.84100
N1810       N  0.01079462  0.46612064  0.25736251    -0.78400
C1811       C  0.97559378  0.27317826  0.43119472     0.81600
N1812       N  0.99835944  0.29822008  0.43399533    -0.76700
C1813       C  0.99984766  0.31915542  0.46314610     0.84000
N1814       N  0.97875854  0.31516469  0.48933894    -0.76700
C1815       C  0.95615638  0.28993361  0.48659391     0.84100
N1816       N  0.95442477  0.26899225  0.45749000    -0.78400
N1817       N  0.07792178  0.43958627  0.40812753    -0.35200
N1818       N  0.12521556  0.39127757  0.44826231    -0.55800
N1819       N  0.17993510  0.41894626  0.41365562    -0.35200
N1820       N  0.13122944  0.46397773  0.36973034    -0.55800
C1821       C  0.05899031  0.41399114  0.42025071     0.28400
C1822       C  0.06251752  0.45408792  0.37866619     0.28400
C1823       C  0.19462724  0.38914686  0.43002224     0.28300
C1824       C  0.19781874  0.42924909  0.38604109     0.28300
C1825       C  0.09774717  0.38861624  0.46637555     0.37000
C1826       C  0.14981120  0.37843847  0.47037286     0.37000
C1827       C  0.10761415  0.48870067  0.35935266     0.37000
C1828       C  0.15937122  0.47844047  0.36180431     0.37000
C1829       C  0.03073779  0.41278559  0.39894639    -0.20500
C1830       C  0.03295776  0.43831416  0.37255214    -0.20500
C1831       C  0.22321951  0.38104302  0.41303192    -0.20500
C1832       C  0.22529047  0.40635047  0.38547385    -0.20500
C1833       C  0.10456048  0.37423237  0.49994655    -0.21600
C1834       C  0.13741993  0.36810360  0.50257953    -0.21600
C1835       C  0.12049487  0.51896334  0.34497802    -0.21600
C1836       C  0.15339168  0.51262975  0.34699501    -0.21600
C1837       C  0.06646558  0.39270410  0.45065211    -0.16900
C1838       C  0.07473916  0.48139838  0.35777658    -0.16900
C1839       C  0.18959181  0.45921654  0.36227934    -0.16900
C1840       C  0.18188443  0.36990393  0.45957786    -0.16900
H1841       H  0.01070395  0.39526887  0.40196366     0.16000
H1842       H  0.01503844  0.44424472  0.35118793     0.16000
H1843       H  0.24064729  0.35914429  0.41955694     0.16000
H1844       H  0.24463454  0.40750794  0.36695125     0.16000
H1845       H  0.08745834  0.36731660  0.51975710     0.14300
H1846       H  0.15015291  0.35498943  0.52488760     0.14300
H1847       H  0.10751564  0.54253962  0.33350753     0.14300
H1848       H  0.17093275  0.53065021  0.33761294     0.14300
H1849       H  0.09977320  0.44731488  0.42002132     0.27500
H1850       H  0.15883643  0.43248206  0.42122262     0.27500
N1851       N  0.84152830  0.34003888  0.56789810    -0.35200
N1852       N  0.80094642  0.38317464  0.61379721    -0.55800
N1853       N  0.85450119  0.37645290  0.66926106    -0.35200
N1854       N  0.89178969  0.32970975  0.62385832    -0.55800
C1855       C  0.81383787  0.34347335  0.54754282     0.28400
C1856       C  0.86051922  0.31428593  0.55337715     0.28400
C1857       C  0.82855440  0.38911731  0.68699946     0.28300
C1858       C  0.87544399  0.35891344  0.69325881     0.28300
C1859       C  0.78635362  0.39148092  0.58163277     0.37000
C1860       C  0.79161169  0.40957928  0.63595059     0.37000
C1861       C  0.90803347  0.31718996  0.59583928     0.37000
C1862       C  0.91431524  0.33538007  0.65005985     0.37000
C1863       C  0.81489433  0.31919541  0.51996691    -0.20500
C1864       C  0.84444006  0.30059372  0.52372998    -0.20500
C1865       C  0.83315773  0.37986212  0.72277403    -0.20500
C1866       C  0.86262197  0.36088710  0.72673263    -0.20500
C1867       C  0.76715650  0.42271498  0.58348609    -0.21600
C1868       C  0.77040259  0.43419829  0.61776207    -0.21600
C1869       C  0.94104256  0.31439888  0.60422191    -0.21600
C1870       C  0.94506395  0.32588753  0.63843984    -0.21600
C1871       C  0.79016323  0.37139197  0.55047992    -0.16900
C1872       C  0.89334444  0.30661083  0.56340994    -0.16900
C1873       C  0.90634378  0.34271588  0.68556857    -0.16900
C1874       C  0.80225933  0.41142151  0.67219123    -0.16900
H1875       H  0.79684090  0.31630926  0.49857217     0.16000
H1876       H  0.85366989  0.28051263  0.50577466     0.16000
H1877       H  0.81699076  0.38632526  0.74393447     0.16000
H1878       H  0.87349638  0.35052129  0.75167383     0.16000
H1879       H  0.75274561  0.43626455  0.56219362     0.14300
H1880       H  0.75909534  0.45875498  0.62718030     0.14300
H1881       H  0.96025954  0.30473087  0.58759643     0.14300
H1882       H  0.96828053  0.32678710  0.65252376     0.14300
H1883       H  0.84844625  0.35708496  0.58813121     0.27500
H1884       H  0.85837749  0.38147572  0.64251945     0.27500
N1885       N  0.88371729  0.37722736  0.17940424    -0.35200
N1886       N  0.82788652  0.36605610  0.12807277    -0.55800
N1887       N  0.87167536  0.36627865  0.07177221    -0.35200
N1888       N  0.92386431  0.38520857  0.12266793    -0.55800
C1889       C  0.85812444  0.38760216  0.19839434     0.28400
C1890       C  0.91045570  0.39034271  0.19579620     0.28400
C1891       C  0.84326436  0.36004475  0.05390095     0.28300
C1892       C  0.88937513  0.38792916  0.05131995     0.28300
C1893       C  0.81374329  0.36350182  0.15968994     0.37000
C1894       C  0.80926592  0.34775965  0.10457723     0.37000
C1895       C  0.94757516  0.37955515  0.14788070     0.37000
C1896       C  0.93800178  0.38549001  0.09137318     0.37000
C1897       C  0.86854285  0.40678239  0.22773531    -0.20500
C1898       C  0.90168303  0.40858888  0.22609903    -0.20500
C1899       C  0.84328336  0.37648889  0.02063558    -0.20500
C1900       C  0.87199256  0.39487376  0.01933330    -0.20500
C1901       C  0.78531962  0.34501042  0.15591760    -0.21600
C1902       C  0.78267876  0.33467726  0.12130785    -0.21600
C1903       C  0.97752574  0.37596081  0.13264831    -0.21600
C1904       C  0.97143112  0.37976916  0.09653291    -0.21600
C1905       C  0.82640690  0.37643510  0.19231815    -0.16900
C1906       C  0.94231538  0.38619506  0.18360374    -0.16900
C1907       C  0.92127431  0.39967558  0.06081833    -0.16900
C1908       C  0.81664440  0.34235452  0.06853734    -0.16900
H1909       H  0.85375406  0.41785674  0.24837901     0.16000
H1910       H  0.91737655  0.42170415  0.24515935     0.16000
H1911       H  0.82394210  0.37678790  0.00025087     0.16000
H1912       H  0.87948318  0.41069799  0.99700506     0.16000
H1913       H  0.76849655  0.33863979  0.17617033     0.14300
H1914       H  0.76334436  0.31885660  0.11061619     0.14300
H1915       H  0.00122364  0.37318663  0.14619478     0.14300
H1916       H  0.98966437  0.37959310  0.07665261     0.14300
H1917       H  0.88301632  0.36035222  0.15761582     0.27500
H1918       H  0.87843787  0.35561865  0.09679557     0.27500
N1919       N  0.86380119  0.57541494  0.35547166    -0.35200
N1920       N  0.84369941  0.62141928  0.41220030    -0.55800
N1921       N  0.88672365  0.67732488  0.38970666    -0.35200
N1922       N  0.90331778  0.63119873  0.32946522    -0.55800
C1923       C  0.83933213  0.55724885  0.36838901     0.28400
C1924       C  0.86818525  0.56398631  0.32212828     0.28400
C1925       C  0.86621140  0.69676874  0.41046456     0.28300
C1926       C  0.90338135  0.70007215  0.36905685     0.28300
C1927       C  0.83461234  0.58944472  0.42485262     0.37000
C1928       C  0.84088197  0.64459649  0.43910753     0.37000
C1929       C  0.91360970  0.60241383  0.31084345     0.37000
C1930       C  0.92860252  0.65295742  0.33153535     0.37000
C1931       C  0.82771180  0.53380475  0.34294849    -0.20500
C1932       C  0.84608820  0.53812866  0.31348275    -0.20500
C1933       C  0.87060012  0.73295946  0.40337596    -0.20500
C1934       C  0.89403537  0.73501310  0.37755489    -0.20500
C1935       C  0.82623488  0.59209680  0.45998568    -0.21600
C1936       C  0.83006263  0.62714012  0.46901123    -0.21600
C1937       C  0.94521989  0.60609396  0.30070323    -0.21600
C1938       C  0.95488783  0.63777830  0.31424770    -0.21600
C1939       C  0.82984786  0.55936484  0.40364884    -0.16900
C1940       C  0.89437103  0.57340645  0.30192304    -0.16900
C1941       C  0.92659051  0.68873145  0.34326269    -0.16900
C1942       C  0.84452939  0.68191525  0.43578215    -0.16900
H1943       H  0.80858822  0.51502677  0.34566943     0.16000
H1944       H  0.84419768  0.52318772  0.28906232     0.16000
H1945       H  0.85820637  0.75557708  0.41545943     0.16000
H1946       H  0.90280938  0.75939590  0.36607242     0.16000
H1947       H  0.81693147  0.57140603  0.47679926     0.14300
H1948       H  0.82426430  0.63861731  0.49430637     0.14300
H1949       H  0.95994632  0.58801358  0.28522291     0.14300
H1950       H  0.97834807  0.64898153  0.31073111     0.14300
H1951       H  0.87863047  0.59219487  0.37007440     0.27500
H1952       H  0.89004883  0.64952074  0.39007916     0.27500
N1953       N  0.90545737  0.17371585  0.34478056    -0.35200
N1954       N  0.86095798  0.11770083  0.33814045    -0.55800
N1955       N  0.89919428  0.07333905  0.39356182    -0.35200
N1956       N  0.94613038  0.12979702  0.39721409    -0.55800
C1957       C  0.88625427  0.18667452  0.31722817     0.28400
C1958       C  0.93274077  0.19213676  0.34515327     0.28400
C1959       C  0.87955004  0.04813439  0.37846341     0.28300
C1960       C  0.92265427  0.05719549  0.41640323     0.28300
C1961       C  0.84202766  0.14544368  0.32433532     0.37000
C1962       C  0.84090224  0.09093034  0.34391115     0.37000
C1963       C  0.96164365  0.16130892  0.39746630     0.37000
C1964       C  0.95746356  0.11076143  0.42661205     0.37000
C1965       C  0.90160925  0.21360504  0.29950556    -0.20500
C1966       C  0.93115559  0.21714286  0.31732207    -0.20500
C1967       C  0.89063703  0.01495117  0.39262855    -0.20500
C1968       C  0.91708801  0.02062719  0.41653743    -0.20500
C1969       C  0.80983212  0.13652332  0.32145872    -0.21600
C1970       C  0.80919551  0.10178675  0.33330594    -0.21600
C1971       C  0.98363569  0.16182221  0.42611345    -0.21600
C1972       C  0.98115495  0.13033519  0.44429297    -0.21600
C1973       C  0.85410191  0.17707446  0.31058525    -0.16900
C1974       C  0.95636204  0.19045742  0.37300120    -0.16900
C1975       C  0.94826693  0.07537191  0.43689579    -0.16900
C1976       C  0.85121189  0.05549798  0.35384013    -0.16900
H1977       H  0.89205485  0.22975585  0.27697312     0.16000
H1978       H  0.94892492  0.23672545  0.31139358     0.16000
H1979       H  0.88035717  0.98929293  0.38694598     0.16000
H1980       H  0.93087651  0.99997681  0.43190703     0.16000
H1981       H  0.78932701  0.15253570  0.31010115     0.14300
H1982       H  0.78799139  0.08579815  0.33248189     0.14300
H1983       H  0.00010436  0.18269052  0.43325096     0.14300
H1984       H  0.99631582  0.12326549  0.46746998     0.14300
H1985       H  0.89901401  0.15602877  0.36456333     0.27500
H1986       H  0.89595916  0.10081558  0.38932949     0.27500
O1987       O  0.91163551  0.29996189  0.73293199    -0.79500
O1988       O  0.01504264  0.18713102  0.79120143    -0.64200
O1989       O  0.96429248  0.27129992  0.76660393    -1.10800
C1990       C  0.05171093  0.29806363  0.69421609     1.07400
O1991       O  0.05906354  0.21923573  0.80140896    -0.77400
O1992       O  0.05093999  0.29347918  0.79129947    -0.65000
Ni1993     Ni  0.92713580  0.25298211  0.74895189     1.34900
C1994       C  0.03221617  0.32179822  0.78654332     0.86100
O1995       O  0.95185389  0.21296498  0.80938493    -0.78000
O1996       O  0.91087159  0.25359422  0.79525168    -0.88200
C1997       C  0.04430566  0.18971239  0.80333744     0.85700
O1998       O  0.94598216  0.24446344  0.70527530    -0.66400
O1999       O  0.06881423  0.28226070  0.71956249    -0.85700
C2000       C  0.95449091  0.21153365  0.70882257     0.86500
C2001       C  0.92207283  0.22581223  0.81313940     1.08100
H2002       H  0.01922938  0.23011476  0.72634102     0.39900
O2003       O  0.01790888  0.24626213  0.74614309    -1.08400
O2004       O  0.00891882  0.32308266  0.76275923    -0.65000
Ni2005     Ni  0.99093386  0.28672027  0.73046420     1.26300
O2006       O  0.96907804  0.20058270  0.73824077    -0.65300
O2007       O  0.02041652  0.29987009  0.69374576    -0.77600
C2008       C  0.92658240  0.32203290  0.71354852     0.85900
O2009       O  0.95795019  0.32248363  0.71298933    -0.64700
Ni2010     Ni  0.06120507  0.25244883  0.76132681     1.27400
Ni2011     Ni  0.98750087  0.22855453  0.77858578     1.26100
H2012       H  0.96204808  0.28762279  0.78634409     0.40400
C2013       C  0.02110072  0.19102980  0.02180976     0.81600
N2014       N  0.99013264  0.19891952  0.03089990    -0.76700
C2015       C  0.98381312  0.22649547  0.05304295     0.84000
N2016       N  0.00838299  0.24532367  0.06687332    -0.76700
C2017       C  0.03926663  0.23760246  0.05802559     0.84100
N2018       N  0.04591169  0.21037540  0.03540941    -0.78400
N2019       N  0.11429372  0.32907043  0.16707462    -0.35200
N2020       N  0.08742090  0.37689755  0.11168433    -0.55800
N2021       N  0.11781436  0.43748666  0.14668513    -0.35200
N2022       N  0.13945175  0.38980732  0.20685126    -0.55800
C2023       C  0.09614664  0.30642943  0.14785081     0.28400
C2024       C  0.12021140  0.31381144  0.19950859     0.28400
C2025       C  0.09875786  0.45603719  0.12171305     0.28300
C2026       C  0.13289206  0.46122338  0.16799967     0.28300
C2027       C  0.08418763  0.34537764  0.09480650     0.37000
C2028       C  0.08047369  0.40304931  0.08707607     0.37000
C2029       C  0.15222649  0.36197381  0.22715970     0.37000
C2030       C  0.15799202  0.41802267  0.21438825     0.37000
C2031       C  0.09023262  0.27632850  0.16832474    -0.20500
C2032       C  0.10552731  0.28100012  0.20108637    -0.20500
C2033       C  0.10191054  0.49251147  0.12722588    -0.20500
C2034       C  0.12392408  0.49575663  0.15594614    -0.20500
C2035       C  0.07478955  0.35140515  0.05938695    -0.21600
C2036       C  0.07234534  0.38789054  0.05447634    -0.21600
C2037       C  0.17787081  0.37289020  0.24875951    -0.21600
C2038       C  0.18165018  0.40822404  0.24059279    -0.21600
C2039       C  0.08713572  0.31134900  0.11161033    -0.16900
C2040       C  0.14232505  0.32629718  0.22543790    -0.16900
C2041       C  0.15523404  0.45217317  0.19716859    -0.16900
C2042       C  0.07996453  0.44047807  0.09347310    -0.16900
H2043       H  0.07695608  0.25312979  0.16023511     0.16000
H2044       H  0.10669456  0.26195439  0.22317359     0.16000
H2045       H  0.09020893  0.51448423  0.11172416     0.16000
H2046       H  0.13201376  0.52066746  0.16704301     0.16000
H2047       H  0.06979809  0.33163581  0.03928913     0.14300
H2048       H  0.06565932  0.40168171  0.02953212     0.14300
H2049       H  0.19300001  0.35679259  0.26765363     0.14300
H2050       H  0.20043441  0.42445498  0.25205160     0.14300
H2051       H  0.12478960  0.35185895  0.15743005     0.27500
H2052       H  0.12153342  0.40995519  0.14853292     0.27500
C2053       C  0.03061394  0.00794068  0.21466143     0.81600
N2054       N  0.05155714  0.01391424  0.24219671    -0.76700
C2055       C  0.04414502  0.03906077  0.26617088     0.84000
N2056       N  0.01570804  0.05867323  0.26272784    -0.76700
C2057       C  0.99446194  0.05241935  0.23524207     0.84100
N2058       N  0.00205283  0.02728642  0.21076431    -0.78400
C2059       C  0.23336844  0.19725784  0.27955211     0.81600
N2060       N  0.25134586  0.19239773  0.25056984    -0.76700
C2061       C  0.24806123  0.21643607  0.22310706     0.84000
N2062       N  0.22640168  0.24472791  0.22430446    -0.76700
C2063       C  0.20834704  0.24935420  0.25331278     0.84100
N2064       N  0.21159659  0.22547074  0.28074482    -0.78400
N2065       N  0.15270574  0.10593697  0.35904244    -0.35200
N2066       N  0.10142853  0.08937435  0.40533462    -0.55800
N2067       N  0.12953568  0.13187319  0.46256980    -0.35200
N2068       N  0.18492576  0.14415535  0.41600644    -0.55800
C2069       C  0.13747810  0.08112350  0.33975190     0.28400
C2070       C  0.18229841  0.10928774  0.34587215     0.28400
C2071       C  0.10895596  0.11176796  0.48103745     0.28300
C2072       C  0.15168895  0.14599079  0.48561330     0.28300
C2073       C  0.08747202  0.08117266  0.37361166     0.37000
C2074       C  0.07735050  0.09035430  0.42835855     0.37000
C2075       C  0.19805278  0.15692319  0.38624125     0.37000
C2076       C  0.18420042  0.17181469  0.43868209     0.37000
C2077       C  0.15760778  0.06824604  0.31373311    -0.20500
C2078       C  0.18616163  0.08617071  0.31764412    -0.20500
C2079       C  0.11788660  0.11371246  0.51698918    -0.20500
C2080       C  0.14470185  0.13548959  0.51988211    -0.20500
C2081       C  0.05441124  0.07705216  0.37643251    -0.21600
C2082       C  0.04806334  0.08264357  0.41121333    -0.21600
C2083       C  0.20587293  0.19248018  0.38999186    -0.21600
C2084       C  0.19649627  0.20216803  0.42298847    -0.21600
C2085       C  0.10485318  0.07313841  0.34332176    -0.16900
C2086       C  0.20303657  0.13659949  0.35573972    -0.16900
C2087       C  0.17703195  0.16851075  0.47493789    -0.16900
C2088       C  0.08225175  0.09293620  0.46535529    -0.16900
H2089       H  0.15190424  0.04890917  0.29344040     0.16000
H2090       H  0.20677405  0.08365830  0.30080689     0.16000
H2091       H  0.10629227  0.10092259  0.53883310     0.16000
H2092       H  0.15765669  0.14244870  0.54427125     0.16000
H2093       H  0.03692459  0.06924839  0.35602520     0.14300
H2094       H  0.02483609  0.07958300  0.42285662     0.14300
H2095       H  0.21649836  0.20983620  0.37072464     0.14300
H2096       H  0.19898499  0.22846198  0.43448604     0.14300
H2097       H  0.14220151  0.12231013  0.37790418     0.27500
H2098       H  0.12809386  0.13691781  0.43529587     0.27500
C2099       C  0.22325814  0.99221334  0.06770113     0.81600
N2100       N  0.19952833  0.98707460  0.04250957    -0.76700
C2101       C  0.20018134  0.00369888  0.01042553     0.84000
N2102       N  0.22429741  0.02616279  0.00359628    -0.76700
C2103       C  0.24821064  0.03110512  0.02868018     0.84100
N2104       N  0.24759715  0.01433740  0.06096547    -0.78400
N2105       N  0.31346046  0.15259249  0.09022157    -0.35200
N2106       N  0.36640940  0.11494496  0.05735855    -0.55800
N2107       N  0.41766003  0.14648042  0.10365962    -0.35200
N2108       N  0.36259004  0.18033830  0.13970899    -0.55800
C2109       C  0.29782126  0.12638176  0.07333475     0.28400
C2110       C  0.29547194  0.16269373  0.11763239     0.28400
C2111       C  0.43317839  0.11661755  0.09007120     0.28300
C2112       C  0.43147178  0.15509410  0.13616780     0.28300
C2113       C  0.34139496  0.11171534  0.03337063     0.37000
C2114       C  0.39375464  0.11095226  0.03923862     0.37000
C2115       C  0.33571337  0.20170419  0.14420175     0.37000
C2116       C  0.38800294  0.19964255  0.15074261     0.37000
C2117       C  0.26882842  0.12039204  0.08958396    -0.20500
C2118       C  0.26731721  0.14360768  0.11774965    -0.20500
C2119       C  0.45818286  0.10619961  0.11453559    -0.20500
C2120       C  0.45723891  0.13033065  0.14318785    -0.20500
C2121       C  0.35254825  0.10559953  0.99982917    -0.21600
C2122       C  0.38579142  0.10617518  0.00340054    -0.21600
C2123       C  0.34380833  0.23446011  0.15786239    -0.21600
C2124       C  0.37695571  0.23337623  0.16124802    -0.21600
C2125       C  0.30926850  0.10896902  0.04322334    -0.16900
C2126       C  0.30406286  0.18969041  0.14119982    -0.16900
C2127       C  0.41970411  0.18462618  0.15832408    -0.16900
C2128       C  0.42391526  0.10015836  0.05608623    -0.16900
H2129       H  0.25068566  0.10143737  0.08200632     0.16000
H2130       H  0.24788108  0.14608475  0.13615622     0.16000
H2131       H  0.47515594  0.08345826  0.11225655     0.16000
H2132       H  0.47322075  0.12915295  0.16678411     0.16000
H2133       H  0.33830454  0.10044794  0.97574590     0.14300
H2134       H  0.40254881  0.10106563  0.98268121     0.14300
H2135       H  0.32748408  0.25642822  0.16515521     0.14300
H2136       H  0.39136758  0.25449916  0.17142741     0.14300
H2137       H  0.33493506  0.16390842  0.08286968     0.27500
H2138       H  0.39830582  0.16099062  0.09077147     0.27500
N2139       N  0.08372291  0.07048278  0.93071814    -0.35200
N2140       N  0.13268500  0.05404303  0.87790210    -0.55800
N2141       N  0.10538138  0.11310078  0.83153077    -0.35200
N2142       N  0.05633261  0.12923974  0.88382030    -0.55800
C2143       C  0.10307332  0.04644121  0.94988162     0.28400
C2144       C  0.06502048  0.08839189  0.95397485     0.28400
C2145       C  0.13065268  0.10200672  0.81165862     0.28300
C2146       C  0.08847129  0.14064449  0.81405097     0.28300
C2147       C  0.14320278  0.02998364  0.90357700     0.37000
C2148       C  0.15479137  0.05233049  0.85233593     0.37000
C2149       C  0.03783036  0.13456154  0.91220339     0.37000
C2150       C  0.04507748  0.15311028  0.85839546     0.37000
C2151       C  0.09475547  0.04726349  0.98528764    -0.20500
C2152       C  0.07098051  0.07386360  0.98788222    -0.20500
C2153       C  0.12995090  0.12311574  0.78092995    -0.20500
C2154       C  0.10354031  0.14736076  0.78243429    -0.20500
C2155       C  0.17193626  0.01268311  0.89405053    -0.21600
C2156       C  0.17954588  0.02732473  0.86224086    -0.21600
C2157       C  0.01436120  0.16164337  0.90471163    -0.21600
C2158       C  0.01881102  0.17328884  0.87071811    -0.21600
C2159       C  0.13004662  0.02618699  0.93746827    -0.16900
C2160       C  0.04413234  0.11885128  0.94623063    -0.16900
C2161       C  0.05965235  0.15949903  0.82551257    -0.16900
C2162       C  0.15398945  0.07315754  0.82033125    -0.16900
H2163       H  0.10573286  0.03150666  0.00739082     0.16000
H2164       H  0.05998200  0.08223341  0.01222188     0.16000
H2165       H  0.14667025  0.12123384  0.75953804     0.16000
H2166       H  0.09618686  0.16749921  0.76232501     0.16000
H2167       H  0.18685165  0.99281108  0.90925221     0.14300
H2168       H  0.20180473  0.02148586  0.84888777     0.14300
H2169       H  0.99651702  0.17265969  0.92234523     0.14300
H2170       H  0.00509436  0.19537031  0.85745751     0.14300
H2171       H  0.08423181  0.07534117  0.90366869     0.27500
H2172       H  0.09979272  0.10215655  0.85564397     0.27500
N2173       N  0.13354802  0.91814498  0.14568718    -0.35200
N2174       N  0.08490974  0.86702035  0.15782037    -0.55800
N2175       N  0.12316345  0.81168734  0.12323585    -0.35200
N2176       N  0.17641498  0.86173751  0.11695731    -0.55800
C2177       C  0.11168510  0.93844394  0.16296682     0.28400
C2178       C  0.16239291  0.93378152  0.14939506     0.28400
C2179       C  0.10370412  0.79047076  0.14241138     0.28300
C2180       C  0.14659670  0.79086125  0.10820905     0.28300
C2181       C  0.06626760  0.89727131  0.16135211     0.37000
C2182       C  0.06512405  0.83942684  0.16091741     0.37000
C2183       C  0.19156217  0.89250544  0.10991924     0.37000
C2184       C  0.18163899  0.84008455  0.08896719     0.37000
C2185       C  0.12666846  0.96768611  0.17784914    -0.20500
C2186       C  0.15889148  0.96456605  0.16948775    -0.20500
C2187       C  0.11488712  0.75507886  0.13901576    -0.20500
C2188       C  0.14147400  0.75525529  0.11709377    -0.20500
C2189       C  0.03442619  0.88900949  0.16698873    -0.21600
C2190       C  0.03379086  0.85234058  0.16717649    -0.21600
C2191       C  0.20694352  0.89009688  0.07799332    -0.21600
C2192       C  0.19973281  0.85768045  0.06418075    -0.21600
C2193       C  0.07839769  0.93177517  0.16399294    -0.16900
C2194       C  0.18993734  0.92388567  0.13042462    -0.16900
C2195       C  0.17167132  0.80409172  0.08633217    -0.16900
C2196       C  0.07542568  0.80279463  0.16100415    -0.16900
H2197       H  0.11550664  0.98916270  0.19281968     0.16000
H2198       H  0.17730646  0.98354986  0.17608539     0.16000
H2199       H  0.10458608  0.73152870  0.15048204     0.16000
H2200       H  0.15573151  0.73185875  0.10922222     0.16000
H2201       H  0.01406635  0.90736347  0.17182670     0.14300
H2202       H  0.01254169  0.83708574  0.17119400     0.14300
H2203       H  0.22022962  0.91039579  0.06467569     0.14300
H2204       H  0.20630104  0.84917053  0.03800205     0.14300
H2205       H  0.12823148  0.89657940  0.12966185     0.27500
H2206       H  0.12032887  0.83918401  0.11896764     0.27500
N2207       N  0.90720832  0.16667982  0.15985836    -0.35200
N2208       N  0.86105707  0.11915157  0.18940934    -0.55800
N2209       N  0.80460838  0.15513919  0.14934165    -0.35200
N2210       N  0.85370822  0.19789205  0.11562567    -0.55800
C2211       C  0.92701101  0.14033194  0.17436916     0.28400
C2212       C  0.92302266  0.18171253  0.13331015     0.28400
C2213       C  0.79284012  0.12283458  0.15953155     0.28300
C2214       C  0.78862610  0.16812168  0.11870624     0.28300
C2215       C  0.88675179  0.11699680  0.21307851     0.37000
C2216       C  0.83474981  0.11151315  0.20778340     0.37000
C2217       C  0.87747459  0.22147029  0.11252968     0.37000
C2218       C  0.82553001  0.21719752  0.11056309     0.37000
C2219       C  0.95638365  0.13908021  0.15766430    -0.20500
C2220       C  0.95383085  0.16536606  0.13142910    -0.20500
C2221       C  0.76771556  0.11559200  0.13509904    -0.20500
C2222       C  0.76514744  0.14384157  0.10960422    -0.20500
C2223       C  0.87720466  0.10814375  0.24657898    -0.21600
C2224       C  0.84413043  0.10579530  0.24344397    -0.21600
C2225       C  0.86473666  0.25575890  0.10531225    -0.21600
C2226       C  0.83167370  0.25298866  0.10527656    -0.21600
C2227       C  0.91893265  0.11903284  0.20328185    -0.16900
C2228       C  0.91025754  0.21082917  0.11243514    -0.16900
C2229       C  0.79619704  0.20146599  0.10045072    -0.16900
C2230       C  0.80504496  0.10160590  0.19078573    -0.16900
H2231       H  0.97736765  0.12124537  0.16374153     0.16000
H2232       H  0.97258669  0.17177012  0.11337963     0.16000
H2233       H  0.75281420  0.09239303  0.13520477     0.16000
H2234       H  0.74810795  0.14600194  0.08692239     0.16000
H2235       H  0.89246579  0.10380695  0.27052088     0.14300
H2236       H  0.82889447  0.09909380  0.26487426     0.14300
H2237       H  0.87782715  0.27987862  0.10068304     0.14300
H2238       H  0.81361778  0.27417678  0.10072062     0.14300
H2239       H  0.88444614  0.17487779  0.16860114     0.27500
H2240       H  0.82290738  0.16825642  0.16325451     0.27500
C2241       C  0.28967380  0.08196699  0.02719238    -0.11900
C2242       C  0.27148253  0.05781041  0.02335652    -0.13500
C2243       C  0.21091504  0.95225263  0.12098521    -0.11900
C2244       C  0.22149067  0.97392724  0.10109439    -0.13500
C2245       C  0.17313567  0.00180605  0.98571053    -0.11900
C2246       C  0.15123494  0.00802385  0.96416078    -0.13500
C2247       C  0.22320713  0.15090734  0.32919743    -0.11900
C2248       C  0.23274818  0.16989431  0.30623107    -0.13500
C2249       C  0.26549078  0.21010096  0.19172670    -0.11900
C2250       C  0.28148876  0.20212366  0.16688783    -0.13500
C2251       C  0.08737228  0.05734115  0.31436548    -0.11900
C2252       C  0.06808351  0.04758093  0.29239153    -0.13500
C2253       C  0.94369242  0.09562734  0.22044681    -0.11900
C2254       C  0.96601960  0.07532171  0.22954079    -0.13500
C2255       C  0.05650029  0.96026011  0.17444450    -0.11900
C2256       C  0.04071066  0.98276324  0.18912926    -0.13500
C2257       C  0.16216555  0.29917865  0.24468186    -0.11900
C2258       C  0.18291680  0.27653950  0.25250143    -0.13500
C2259       C  0.07739518  0.28068432  0.09136665    -0.11900
C2260       C  0.06404276  0.25817048  0.07428988    -0.13500
C2261       C  0.02739395  0.16213299  0.99795594    -0.11900
C2262       C  0.03326288  0.13995480  0.97585924    -0.13500
C2263       C  0.95282817  0.23071045  0.06803160    -0.11900
C2264       C  0.93073090  0.22664462  0.08717303    -0.13500
C2265       C  0.93290733  0.28759794  0.51345299    -0.11900
C2266       C  0.91412109  0.29242030  0.53662517    -0.13500
C2267       C  0.97466522  0.24955334  0.40169423    -0.11900
C2268       C  0.96960228  0.22415651  0.38329481    -0.13500
C2269       C  0.02284972  0.34639345  0.46537301    -0.11900
C2270       C  0.04247522  0.36882802  0.46211294    -0.13500
C2271       C  0.92669075  0.52943338  0.26257671    -0.11900
C2272       C  0.90692398  0.54835285  0.27663847    -0.13500
C2273       C  0.98189424  0.42514152  0.21948465    -0.11900
C2274       C  0.96815498  0.40196332  0.20397171    -0.13500
C2275       C  0.03568877  0.50058229  0.30362529    -0.11900
C2276       C  0.05454939  0.49639045  0.32865669    -0.13500
C2277       C  0.76500760  0.40097318  0.49107002    -0.11900
C2278       C  0.77369292  0.38466246  0.51790154    -0.13500
C2279       C  0.81318812  0.52992672  0.41801102    -0.11900
C2280       C  0.79787896  0.50511917  0.42701564    -0.13500
C2281       C  0.68195862  0.44151391  0.36458746    -0.11900
C2282       C  0.70529392  0.44474445  0.38412445    -0.13500
C2283       C  0.83197730  0.20170175  0.29087478    -0.11900
C2284       C  0.81254359  0.22394091  0.27864477    -0.13500
C2285       C  0.70512904  0.28236994  0.26996671    -0.11900
C2286       C  0.67914363  0.29472690  0.27776882    -0.13500
C2287       C  0.80947066  0.36771538  0.22347284    -0.11900
C2288       C  0.79743266  0.34778466  0.24370150    -0.13500
C2289       C  0.92144946  0.50382431  0.70976931    -0.11900
C2290       C  0.93818774  0.49468479  0.73546195    -0.13500
C2291       C  0.07043371  0.45662598  0.74350797    -0.11900
C2292       C  0.05009599  0.47111126  0.76096206    -0.13500
C2293       C  0.99656720  0.57314647  0.81037149    -0.11900
C2294       C  0.01005075  0.59896166  0.82130890    -0.13500
C2295       C  0.31063344  0.52313542  0.57222962    -0.11900
C2296       C  0.33598706  0.53059707  0.58618003    -0.13500
C2297       C  0.20399052  0.50496476  0.60957858    -0.11900
C2298       C  0.19040168  0.48426511  0.62799896    -0.13500
C2299       C  0.29489692  0.65567792  0.72619595    -0.11900
C2300       C  0.32090168  0.64598294  0.71648470    -0.13500
C2301       C  0.18606060  0.63421623  0.75700645    -0.11900
C2302       C  0.16893881  0.62397523  0.77953654    -0.13500
C2303       C  0.20027171  0.77668687  0.69882229    -0.11900
C2304       C  0.21206688  0.74879774  0.71028141    -0.13500
C2305       C  0.20545661  0.57196815  0.46720994    -0.11900
C2306       C  0.21903906  0.55859493  0.49348049    -0.13500
C2307       C  0.05405490  0.64741509  0.45752705    -0.11900
C2308       C  0.04111897  0.65867531  0.48325636    -0.13500
C2309       C  0.98440810  0.66228435  0.59231186    -0.11900
C2310       C  0.96235755  0.64871284  0.60634667    -0.13500
C2311       C  0.06283965  0.75012005  0.56759872    -0.11900
C2312       C  0.07780006  0.77458759  0.57894516    -0.13500
C2313       C  0.68159833  0.27284153  0.70861542    -0.11900
C2314       C  0.66555250  0.29738189  0.69525608    -0.13500
C2315       C  0.68929770  0.14303994  0.79228797    -0.11900
C2316       C  0.70171221  0.15943304  0.76921262    -0.13500
C2317       C  0.79318742  0.18575644  0.65905171    -0.11900
C2318       C  0.76928338  0.19449706  0.67432202    -0.13500
C2319       C  0.45794981  0.19041741  0.60448826    -0.11900
C2320       C  0.48072018  0.19265826  0.58598434    -0.13500
C2321       C  0.53827459  0.14126780  0.48830802    -0.11900
C2322       C  0.54939651  0.12183429  0.46625610    -0.13500
C2323       C  0.56189676  0.25894765  0.53094549    -0.11900
C2324       C  0.57609061  0.28477081  0.54040145    -0.13500
C2325       C  0.70187555  0.04914408  0.47573314    -0.11900
C2326       C  0.71865941  0.03703375  0.50022181    -0.13500
C2327       C  0.67725835  0.97056287  0.62435173    -0.11900
C2328       C  0.69745638  0.98979154  0.61421457    -0.13500
C2329       C  0.82970970  0.02087787  0.59922224    -0.11900
C2330       C  0.80719243  0.00682417  0.58493616    -0.13500
C2331       C  0.44575331  0.05231886  0.74370009    -0.11900
C2332       C  0.42725855  0.07602770  0.73302824    -0.13500
C2333       C  0.54946065  0.00825259  0.78678991    -0.11900
C2334       C  0.56833797  0.02391815  0.80529878    -0.13500
C2335       C  0.51609540  0.94584210  0.65726998    -0.11900
C2336       C  0.50228482  0.96117261  0.68038428    -0.13500
C2337       C  0.47552687  0.57750433  0.22309526    -0.11900
C2338       C  0.45206555  0.59295367  0.20945658    -0.13500
C2339       C  0.53804330  0.43019313  0.21443093    -0.11900
C2340       C  0.52726496  0.45918142  0.22242081    -0.13500
C2341       C  0.45567286  0.68766286  0.05685014    -0.11900
C2342       C  0.47939987  0.70425769  0.05221944    -0.13500
C2343       C  0.54657596  0.76873959  0.13315247    -0.11900
C2344       C  0.55159125  0.79217693  0.15392931    -0.13500
C2345       C  0.60758945  0.70522221  0.00444582    -0.11900
C2346       C  0.59097543  0.71815300  0.02683498    -0.13500
C2347       C  0.67815736  0.45084005  0.13946306    -0.11900
C2348       C  0.69546513  0.47097409  0.12505842    -0.13500
C2349       C  0.80470896  0.47945816  0.09358716    -0.11900
C2350       C  0.82737683  0.49283725  0.10824689    -0.13500
C2351       C  0.72018170  0.53686477  0.01912236    -0.11900
C2352       C  0.70869861  0.55687810  0.99605246    -0.13500
C2353       C  0.61345079  0.56391039  0.27131234    -0.11900
C2354       C  0.59003813  0.55884520  0.25245955    -0.13500
C2355       C  0.76287538  0.67173633  0.29476410    -0.11900
C2356       C  0.75415795  0.65015604  0.31591233    -0.13500
C2357       C  0.80078190  0.66993144  0.15340143    -0.11900
C2358       C  0.78198846  0.68616314  0.17139875    -0.13500
C2359       C  0.71415355  0.77394673  0.23037313    -0.11900
C2360       C  0.69513419  0.79908600  0.22557277    -0.13500
C2361       C  0.30849096  0.49518357  0.92188698    -0.11900
C2362       C  0.33099791  0.51181486  0.91250386    -0.13500
C2363       C  0.16880701  0.49492321  0.90642560    -0.11900
C2364       C  0.19206550  0.50121122  0.92526094    -0.13500
C2365       C  0.27048909  0.42500522  0.04497752    -0.11900
C2366       C  0.25775062  0.44171576  0.02018783    -0.13500
C2367       C  0.54415654  0.44336478  0.75202781    -0.11900
C2368       C  0.56231649  0.41749586  0.75681990    -0.13500
C2369       C  0.50072900  0.52306465  0.83978686    -0.11900
C2370       C  0.48863942  0.53907592  0.86366476    -0.13500
C2371       C  0.41752885  0.50298315  0.71067184    -0.11900
C2372       C  0.44043457  0.50560973  0.73102628    -0.13500
C2373       C  0.51669675  0.31563731  0.92902244    -0.11900
C2374       C  0.53941960  0.32133217  0.91141021    -0.13500
C2375       C  0.44351111  0.35399389  0.01850850    -0.11900
C2376       C  0.42987849  0.36708392  0.04287746    -0.13500
C2377       C  0.41999008  0.25266889  0.94622431    -0.11900
C2378       C  0.40551335  0.22934503  0.93187325    -0.13500
C2379       C  0.31614431  0.22969076  0.77526867    -0.11900
C2380       C  0.29991813  0.25517163  0.76395319    -0.13500
C2381       C  0.28526962  0.40410306  0.71003401    -0.11900
C2382       C  0.27836086  0.37957462  0.72875681    -0.13500
C2383       C  0.18357790  0.33565144  0.81705674    -0.11900
C2384       C  0.20643015  0.32178687  0.80348692    -0.13500
C2385       C  0.42266631  0.78297902  0.51514206    -0.11900
C2386       C  0.40231161  0.78982421  0.53624633    -0.13500
C2387       C  0.25208571  0.91572714  0.52979413    -0.11900
C2388       C  0.26493947  0.89508728  0.55116863    -0.13500
C2389       C  0.30728248  0.01731028  0.48992295    -0.11900
C2390       C  0.33002050  0.03524147  0.48483053    -0.13500
C2391       C  0.20445594  0.99038345  0.43495692    -0.11900
C2392       C  0.18538038  0.98102313  0.41248484    -0.13500
C2393       C  0.53026725  0.81698235  0.48433408    -0.11900
C2394       C  0.55300425  0.83276811  0.47403382    -0.13500
C2395       C  0.53206519  0.90780745  0.29407287    -0.11900
C2396       C  0.55636074  0.89111177  0.30404391    -0.13500
C2397       C  0.42932724  0.94911644  0.23877959    -0.11900
C2398       C  0.41069975  0.94458922  0.21413340    -0.13500
C2399       C  0.46500215  0.99662810  0.35093196    -0.11900
C2400       C  0.45667700  0.01862460  0.37209478    -0.13500
C2401       C  0.46869757  0.72014649  0.38446788    -0.11900
C2402       C  0.47303812  0.73632620  0.41137391    -0.13500
C2403       C  0.22632195  0.79921889  0.32929333    -0.11900
C2404       C  0.20451207  0.81072692  0.34645516    -0.13500
C2405       C  0.31133558  0.73534588  0.26833150    -0.11900
C2406       C  0.33267638  0.71242707  0.27218637    -0.13500
C2407       C  0.27144484  0.86958006  0.19892546    -0.11900
C2408       C  0.26642766  0.84937269  0.22298206    -0.13500
C2409       C  0.96095782  0.90846592  0.77102561    -0.11900
C2410       C  0.94669884  0.89111363  0.74920852    -0.13500
C2411       C  0.02771753  0.98078434  0.84896895    -0.11900
C2412       C  0.05173658  0.97712494  0.86805298    -0.13500
C2413       C  0.92955926  0.03010430  0.79071103    -0.11900
C2414       C  0.90722814  0.05129006  0.79310541    -0.13500
C2415       C  0.93830284  0.74459892  0.90316787    -0.11900
C2416       C  0.92979020  0.72128109  0.88365691    -0.13500
C2417       C  0.91543103  0.79280810  0.01856484    -0.11900
C2418       C  0.90097680  0.80261725  0.04406810    -0.13500
C2419       C  0.01466189  0.81931093  0.96273273    -0.11900
C2420       C  0.03951080  0.83411366  0.95862594    -0.13500
C2421       C  0.76475770  0.03387451  0.92435575    -0.11900
C2422       C  0.77300664  0.05089248  0.89911832    -0.13500
C2423       C  0.70072458  0.95682623  0.99387892    -0.11900
C2424       C  0.68232277  0.93317893  0.98884586    -0.13500
C2425       C  0.80672876  0.98369184  0.03679863    -0.11900
C2426       C  0.82526761  0.96808298  0.05777387    -0.13500
C2427       C  0.80132873  0.69911988  0.77425233    -0.11900
C2428       C  0.78287340  0.72379725  0.76574934    -0.13500
C2429       C  0.71043527  0.79524636  0.83338407    -0.11900
C2430       C  0.69508577  0.80278608  0.85866683    -0.13500
C2431       C  0.78292751  0.86659434  0.72223215    -0.11900
C2432       C  0.76509849  0.84805443  0.73779978    -0.13500
loop_ 
_geom_bond_atom_site_label_1 
_geom_bond_atom_site_label_2 
_geom_bond_distance 
_geom_bond_site_symmetry_2 
_ccdc_geom_bond_type 
O1           Ni7   1.941       .  S
O1           C22   1.271       .  A
O2          Ni25   1.947       .  S
O2           C11   1.280       .  A
O3           Ni7   1.935       .  S
O3          Ni25   1.947       .  S
O3          Ni19   1.925       .  S
O3           H26   0.966       .  S
C4           O21   1.289       .  A
C4           O13   1.274       .  A
C4         C1052   1.512       .  S
O5          Ni24   1.942       .  S
O5           C11   1.280       .  A
O6          Ni24   1.960       .  S
O6            C8   1.286       .  A
Ni7          O10   1.920       .  S
Ni7          O12   1.930       .  S
C8           O18   1.275       .  A
C8          C544   1.526       .  S
O9          Ni25   1.929       .  S
O9           C15   1.282       .  A
O10          C15   1.265       .  A
C11        C1605   1.500       .  S
O12          C14   1.285       .  A
O13         Ni24   1.925       .  S
C14          O20   1.277       .  A
C14        C1417   1.536       .  S
C15         C909   1.506       .  S
H16          O17   0.966       .  S
O17         Ni25   1.886       .  S
O17         Ni19   1.911       .  S
O17         Ni24   1.913       .  S
O18         Ni19   1.958       .  S
Ni19         O23   1.953       .  S
Ni19         O21   1.942       .  S
O20         Ni25   1.970       .  S
C22          O23   1.284       .  A
C22        C1788   1.518       .  S
O27         Ni33   1.957       .  S
O27          C48   1.294       .  A
O28         Ni51   1.927       .  S
O28          C37   1.283       .  A
O29         Ni33   1.834       .  S
O29         Ni51   1.857       .  S
O29         Ni45   1.893       .  S
O29          H52   0.974       .  S
C30          O47   1.294       .  A
C30          O39   1.282       .  A
C30         C943   1.530       .  S
O31         Ni50   1.947       .  S
O31          C37   1.285       .  A
O32         Ni50   1.970       .  S
O32          C34   1.290       .  A
Ni33         O36   1.936       .  S
Ni33         O38   1.897       .  S
C34          O44   1.284       .  A
C34        C2127   1.551       .  S
O35         Ni51   2.025       .  S
O35          C41   1.323       .  A
O36          C41   1.295       .  A
C37         C698   1.501       .  S
O38          C40   1.275       .  A
O39         Ni50   1.960       .  S
C40          O46   1.292       .  A
C40        C1787   1.513       .  S
C41        C1344   1.560       .  S
H42          O43   0.965       .  S
O43         Ni51   1.922       .  S
O43         Ni45   1.896       .  S
O43         Ni50   1.886       .  S
O44         Ni45   1.987       .  S
Ni45         O49   1.925       .  S
Ni45         O47   1.965       .  S
O46         Ni51   2.011       .  S
C48          O49   1.291       .  A
C48        C1137   1.498       .  S
C53          N54   1.356       .  A
C53          N58   1.350       .  A
C53        C2432   1.416       .  S
N54          C55   1.352       .  A
C55          N56   1.353       .  A
C55        C2428   1.422       .  S
N56          C57   1.352       .  A
C57          N58   1.353       .  A
C57        C2429   1.416       .  S
C59          N60   1.358       .  A
C59          N64   1.355   1_545  A
C59        C2421   1.430       .  S
N60          C61   1.356   1_546  A
C61          N62   1.352       .  A
C61        C2425   1.426       .  S
N62          C63   1.351   1_554  A
C63          N64   1.356       .  A
C63        C2423   1.422       .  S
C65          N66   1.352       .  A
C65          N70   1.359       .  A
C65        C2415   1.425       .  S
N66          C67   1.353       .  A
C67          N68   1.353       .  A
C67        C2419   1.422   1_655  S
N68          C69   1.355       .  A
C69          N70   1.356       .  A
C69        C2417   1.431   1_556  S
C71          N72   1.353       .  A
C71          N76   1.346   1_545  A
C71        C2413   1.414       .  S
N72          C73   1.354   1_645  A
C73          N74   1.362   1_455  A
C73        C2411   1.426       .  S
N74          C75   1.357       .  A
C75          N76   1.349       .  A
C75        C2409   1.426       .  S
N77          C82   1.341       .  A
N77          C81   1.346       .  A
N77         H109   1.040       .  S
N78          C85   1.344       .  A
N78          C86   1.339       .  A
N79          C84   1.359       .  A
N79          C83   1.368       .  A
N79         H110   1.041       .  S
N80          C87   1.357       .  A
N80          C88   1.353       .  A
C81          C89   1.385       .  A
C81          C97   1.399       .  A
C82          C98   1.398       .  A
C82          C90   1.389       .  A
C83          C91   1.388       .  A
C83         C100   1.446       .  A
C84          C99   1.445       .  A
C84          C92   1.390       .  A
C85          C97   1.396       .  A
C85          C93   1.384       .  A
C86         C100   1.402       .  A
C86          C94   1.390       .  A
C87          C95   1.383       .  A
C87          C98   1.409       .  A
C88          C96   1.392       .  A
C88          C99   1.421       .  A
C89          C90   1.381       .  A
C89         H101   1.082       .  S
C90         H102   1.082       .  S
C91          C92   1.405       .  A
C91         H103   1.082       .  S
C92         H104   1.082       .  S
C93          C94   1.375       .  A
C93         H105   1.082       .  S
C94         H106   1.083       .  S
C95          C96   1.362       .  A
C95         H107   1.082       .  S
C96         H108   1.081       .  S
C97        C2420   1.433       .  S
C98        C2412   1.438       .  S
C99         C414   1.514       .  S
C100        C366   1.529       .  S
N111        C116   1.346       .  A
N111        C115   1.349       .  A
N111        H143   1.036       .  S
N112        C119   1.352       .  A
N112        C120   1.345       .  A
N113        C118   1.380       .  A
N113        C117   1.382       .  A
N113        H144   1.034       .  S
N114        C121   1.359       .  A
N114        C122   1.355       .  A
C115        C123   1.387       .  A
C115        C131   1.406       .  A
C116        C132   1.403       .  A
C116        C124   1.388       .  A
C117        C125   1.391       .  A
C117        C134   1.482       .  A
C118        C133   1.484       .  A
C118        C126   1.392       .  A
C119        C131   1.402       .  A
C119        C127   1.382       .  A
C120        C134   1.413       .  A
C120        C128   1.393       .  A
C121        C129   1.379       .  A
C121        C132   1.411       .  A
C122        C130   1.390       .  A
C122        C133   1.432       .  A
C123        C124   1.373       .  A
C123        H135   1.082       .  S
C124        H136   1.083       .  S
C125        C126   1.416       .  A
C125        H137   1.082       .  S
C126        H138   1.082       .  S
C127        C128   1.368       .  A
C127        H139   1.083   1_565  S
C128        H140   1.081   1_565  S
C129        C130   1.360       .  A
C129        H141   1.083       .  S
C130        H142   1.071       .  S
C131       C2426   1.443       .  S
C132       C2418   1.447       .  S
C133        C470   1.567       .  S
C134        C750   1.551       .  S
N145        C150   1.349       .  A
N145        C149   1.351       .  A
N145        H177   1.036       .  S
N146        C153   1.353       .  A
N146        C154   1.352       .  A
N147        C152   1.368       .  A
N147        C151   1.363       .  A
N147        H178   1.036       .  S
N148        C155   1.346       .  A
N148        C156   1.345       .  A
C149        C157   1.387       .  A
C149        C165   1.410       .  A
C150        C166   1.412       .  A
C150        C158   1.389       .  A
C151        C159   1.388       .  A
C151        C168   1.446       .  A
C152        C167   1.451       .  A
C152        C160   1.389       .  A
C153        C165   1.411       .  A
C153        C161   1.385       .  A
C154        C168   1.419       .  A
C154        C162   1.390       .  A
C155        C163   1.387       .  A
C155        C166   1.404       .  A
C156        C164   1.383       .  A
C156        C167   1.407       .  A
C157        C158   1.377       .  A
C157        H169   1.082       .  S
C158        H170   1.082       .  S
C159        C160   1.399       .  A
C159        H171   1.082       .  S
C160        H172   1.082       .  S
C161        C162   1.364       .  A
C161        H173   1.082       .  S
C162        H174   1.081       .  S
C163        C164   1.368       .  A
C163        H175   1.083       .  S
C164        H176   1.071       .  S
C165       C2410   1.445       .  S
C166       C2431   1.433       .  S
C167        C458   1.518       .  S
C168       C1291   1.513       .  S
N179        C184   1.347       .  A
N179        C183   1.345       .  A
N179        H211   1.037       .  S
N180        C187   1.351       .  A
N180        C188   1.349       .  A
N181        C186   1.360       .  A
N181        C185   1.357       .  A
N181        H212   1.040       .  S
N182        C189   1.349       .  A
N182        C190   1.347       .  A
C183        C191   1.386       .  A
C183        C199   1.401       .  A
C184        C200   1.407       .  A
C184        C192   1.389       .  A
C185        C193   1.387       .  A
C185        C202   1.425       .  A
C186        C201   1.428       .  A
C186        C194   1.387       .  A
C187        C199   1.408       .  A
C187        C195   1.388       .  A
C188        C202   1.404       .  A
C188        C196   1.385       .  A
C189        C197   1.385       .  A
C189        C200   1.406       .  A
C190        C198   1.386       .  A
C190        C201   1.406       .  A
C191        C192   1.380       .  A
C191        H203   1.082       .  S
C192        H204   1.083       .  S
C193        C194   1.389       .  A
C193        H205   1.082       .  S
C194        H206   1.082       .  S
C195        C196   1.367       .  A
C195        H207   1.082       .  S
C196        H208   1.082       .  S
C197        C198   1.371       .  A
C197        H209   1.082       .  S
C198        H210   1.076       .  S
C199       C2416   1.436       .  S
C200       C2427   1.438       .  S
C201       C1261   1.487       .  S
C202        C395   1.483       .  S
N213        C218   1.341       .  A
N213        C217   1.339       .  A
N213        H245   1.044       .  S
N214        C221   1.354       .  A
N214        C222   1.347       .  A
N215        C220   1.369       .  A
N215        C219   1.373       .  A
N215        H246   1.043       .  S
N216        C223   1.350       .  A
N216        C224   1.343       .  A
C217        C225   1.386       .  A
C217        C233   1.390       .  A
C218        C234   1.397       .  A
C218        C226   1.389       .  A
C219        C227   1.391       .  A
C219        C236   1.464       .  A
C220        C235   1.464       .  A
C220        C228   1.392       .  A
C221        C233   1.389       .  A
C221        C229   1.375       .  A
C222        C236   1.410       .  A
C222        C230   1.372       .  A
C223        C231   1.377   1_556  A
C223        C234   1.392       .  A
C224        C232   1.390   1_556  A
C224        C235   1.409       .  A
C225        C226   1.382       .  A
C225        H237   1.082       .  S
C226        H238   1.082       .  S
C227        C228   1.416       .  A
C227        H239   1.082       .  S
C228        H240   1.082       .  S
C229        C230   1.362       .  A
C229        H241   1.083       .  S
C230        H242   1.052       .  S
C231        C232   1.371       .  A
C231        H243   1.083       .  S
C232        H244   1.074       .  S
C233       C2430   1.427       .  S
C234       C2424   1.433       .  S
C235        C496   1.538       .  S
C236        C346   1.558       .  S
N247        C252   1.349       .  A
N247        C251   1.344       .  A
N247        H279   1.042       .  S
N248        C255   1.351       .  A
N248        C256   1.350       .  A
N249        C254   1.355       .  A
N249        C253   1.362       .  A
N249        H280   1.039       .  S
N250        C257   1.350       .  A
N250        C258   1.344       .  A
C251        C259   1.389       .  A
C251        C267   1.401       .  A
C252        C268   1.402       .  A
C252        C260   1.386       .  A
C253        C261   1.385       .  A
C253        C270   1.430       .  A
C254        C269   1.433       .  A
C254        C262   1.391       .  A
C255        C267   1.394       .  A
C255        C263   1.379       .  A
C256        C270   1.415       .  A
C256        C264   1.383       .  A
C257        C265   1.379       .  A
C257        C268   1.396       .  A
C258        C266   1.392       .  A
C258        C269   1.413       .  A
C259        C260   1.377       .  A
C259        H271   1.082       .  S
C260        H272   1.082       .  S
C261        C262   1.394       .  A
C261        H273   1.082       .  S
C262        H274   1.082       .  S
C263        C264   1.363       .  A
C263        H275   1.083       .  S
C264        H276   1.069       .  S
C265        C266   1.367       .  A
C265        H277   1.083       .  S
C266        H278   1.074       .  S
C267       C2414   1.429       .  S
C268       C2422   1.442       .  S
C269        C779   1.484       .  S
C270       C2001   1.510       .  S
O281       Ni287   1.938       .  S
O281        C302   1.279       .  A
O282       Ni305   1.936       .  S
O282        C291   1.277       .  A
O283       Ni287   1.889       .  S
O283       Ni305   1.922       .  S
O283       Ni299   1.907       .  S
O283        H306   0.966       .  S
C284        O301   1.288       .  A
C284        O293   1.268       .  A
C284       C1103   1.501       .  S
O285       Ni304   1.914       .  S
O285        C291   1.271       .  A
O286       Ni304   1.932       .  S
O286        C288   1.284       .  A
Ni287       O290   1.922       .  S
Ni287       O292   1.951       .  S
C288        O298   1.282       .  A
C288        C944   1.550       .  S
O289       Ni305   1.943       .  S
O289        C295   1.290       .  A
O290        C295   1.273       .  A
C291       C2041   1.482       .  S
O292        C294   1.288       .  A
O293       Ni304   1.916       .  S
C294        O300   1.280       .  A
C294       C1560   1.568       .  S
C295       C1839   1.488       .  S
H296        O297   0.966       .  S
O297       Ni305   1.918       .  S
O297       Ni299   1.919       .  S
O297       Ni304   1.897       .  S
O298       Ni299   1.994       .  S
Ni299       O303   1.958       .  S
Ni299       O301   1.939       .  S
O300       Ni305   1.993       .  S
C302        O303   1.285       .  A
C302        C543   1.512       .  S
O307       Ni313   1.939       .  S
O307        C328   1.274       .  A
O308       Ni331   1.957       .  S
O308        C317   1.299       .  A
O309       Ni313   1.912       .  S
O309       Ni331   1.948       .  S
O309       Ni325   1.940       .  S
O309        H332   0.967       .  S
C310        O327   1.310       .  A
C310        O319   1.297       .  A
C310       C1646   1.531       .  S
O311       Ni330   1.916       .  S
O311        C317   1.281       .  A
O312       Ni330   1.910       .  S
O312        C314   1.267       .  A
Ni313       O316   1.938       .  S
Ni313       O318   1.940       .  S
C314        O324   1.271       .  A
C314       C1840   1.527       .  S
O315       Ni331   1.959       .  S
O315        C321   1.287       .  A
O316        C321   1.273       .  A
C317       C2087   1.503       .  S
O318        C320   1.285       .  A
O319       Ni330   1.961       .  S
C320        O326   1.275       .  A
C320       C1377   1.521       .  S
C321        C697   1.517       .  S
H322        O323   0.966       .  S
O323       Ni331   1.878       .  S
O323       Ni325   1.864       .  S
O323       Ni330   1.875       .  S
O324       Ni325   1.970       .  S
Ni325       O329   1.943       .  S
Ni325       O327   1.974       .  S
O326       Ni331   1.959       .  S
C328        O329   1.281       .  A
C328        C910   1.512       .  S
O333       Ni339   1.953       .  S
O333        C354   1.281       .  A
O334       Ni357   1.938       .  S
O334        C343   1.275       .  A
O335       Ni339   1.910       .  S
O335       Ni357   1.926       .  S
O335       Ni351   1.906       .  S
O335        H358   0.967       .  S
C336        O353   1.288       .  A
C336        O345   1.272       .  A
C336        C664   1.493       .  S
O337       Ni356   1.921       .  S
O337        C343   1.269       .  A
O338       Ni356   1.927       .  S
O338        C340   1.280       .  A
Ni339       O342   1.934       .  S
Ni339       O344   1.971       .  S
C340        O350   1.278       .  A
C340       C1606   1.556       .  S
O341       Ni357   1.915       .  S
O341        C347   1.273       .  A
O342        C347   1.279       .  A
C343        C841   1.497       .  S
O344        C346   1.289       .  A
O345       Ni356   1.912       .  S
C346        O352   1.287       .  A
C347       C1172   1.493       .  S
H348        O349   0.967       .  S
O349       Ni357   1.903       .  S
O349       Ni351   1.923       .  S
O349       Ni356   1.902       .  S
O350       Ni351   1.998       .  S
Ni351       O355   1.921       .  S
Ni351       O353   1.943       .  S
O352       Ni357   2.002       .  S
C354        O355   1.272       .  A
C354       C1452   1.505       .  S
O359       Ni365   1.920   1_554  S
O359        C380   1.268       .  A
O360       Ni383   1.952       .  S
O360        C369   1.279       .  A
O361       Ni365   1.905       .  S
O361       Ni383   1.928       .  S
O361       Ni377   1.905   1_556  S
O361        H384   0.965       .  S
C362        O379   1.284       .  A
C362        O371   1.268       .  A
C362       C2195   1.515       .  S
O363       Ni382   1.916   1_556  S
O363        C369   1.267       .  A
O364       Ni382   1.913   1_556  S
O364        C366   1.277       .  A
Ni365       O368   1.903       .  S
Ni365       O370   1.922   1_556  S
C366        O376   1.276       .  A
O367       Ni383   1.935       .  S
O367        C373   1.283       .  A
O368        C373   1.268       .  A
C369       C1747   1.495       .  S
O370        C372   1.279       .  A
O371       Ni382   1.926       .  S
C372        O378   1.278       .  A
C372       C1104   1.510       .  S
C373        C842   1.482       .  S
H374        O375   0.966       .  S
O375       Ni383   1.926   1_554  S
O375       Ni377   1.929       .  S
O375       Ni382   1.916       .  S
O376       Ni377   1.972   1_556  S
Ni377       O381   1.940       .  S
Ni377       O379   1.941       .  S
O378       Ni383   1.967   1_554  S
C380        O381   1.278       .  A
C380        C618   1.494       .  S
O385       Ni391   1.926   1_554  S
O385        C406   1.282       .  A
O386       Ni409   1.925       .  S
O386        C395   1.276       .  A
O387       Ni391   1.865   1_554  S
O387       Ni409   1.861   1_454  S
O387       Ni403   1.857   1_455  S
O387        H410   0.967       .  S
C388        O405   1.280       .  A
C388        O397   1.278       .  A
C388       C1907   1.503       .  S
O389       Ni408   1.923   1_556  S
O389        C395   1.274       .  A
O390       Ni408   1.943       .  S
O390        C392   1.279       .  A
Ni391       O394   1.946       .  S
Ni391       O396   1.929       .  S
C392        O402   1.276       .  A
C392       C1205   1.512       .  S
O393       Ni409   1.956   1_455  S
O393        C399   1.307       .  A
O394        C399   1.292       .  A
O396        C398   1.274       .  A
O397       Ni408   1.941       .  S
C398        O404   1.265       .  A
C398       C1012   1.519       .  S
C399       C1748   1.513       .  S
H400        O401   0.966       .  S
O401       Ni409   1.913       .  S
O401       Ni403   1.920   1_556  S
O401       Ni408   1.900   1_556  S
O402       Ni403   1.961       .  S
Ni403       O407   1.949   1_655  S
Ni403       O405   1.914       .  S
O404       Ni409   1.960   1_455  S
C406        O407   1.294       .  A
C406       C2042   1.494       .  S
O411       Ni417   1.956       .  S
O411        C432   1.278       .  A
O412       Ni435   1.953   1_565  S
O412        C421   1.280       .  A
O413       Ni417   1.922       .  S
O413       Ni435   1.918       .  S
O413       Ni429   1.908   1_545  S
O413        H436   0.967       .  S
C414        O431   1.280       .  A
C414        O423   1.275       .  A
O415       Ni434   1.928       .  S
O415        C421   1.275       .  A
O416       Ni434   1.944       .  S
O416        C418   1.284       .  A
Ni417       O420   1.959       .  S
Ni417       O422   1.951       .  S
C418        O428   1.280       .  A
C418       C1713   1.549       .  S
O419       Ni435   1.933       .  S
O419        C425   1.286       .  A
O420        C425   1.279       .  A
C421        C663   1.503       .  S
O422        C424   1.285       .  A
O423       Ni434   1.952       .  S
C424        O430   1.286       .  A
C424        C977   1.548       .  S
C425       C1378   1.522       .  S
H426        O427   0.966       .  S
O427       Ni435   1.922   1_565  S
O427       Ni429   1.916       .  S
O427       Ni434   1.917       .  S
O428       Ni429   1.992       .  S
Ni429       O433   1.914   1_565  S
Ni429       O431   1.925       .  S
O430       Ni435   1.998       .  S
C432        O433   1.271       .  A
C432       C2162   1.499       .  S
O437       Ni443   1.926       .  S
O437        C458   1.271       .  A
O438       Ni461   1.942       .  S
O438        C447   1.278       .  A
O439       Ni443   1.920       .  S
O439       Ni461   1.925       .  S
O439       Ni455   1.917       .  S
O439        H462   0.966       .  S
C440        O457   1.290       .  A
C440        O449   1.276       .  A
C440       C1451   1.517       .  S
O441       Ni460   1.954       .  S
O441        C447   1.275       .  A
O442       Ni460   1.932       .  S
O442        C444   1.281       .  A
Ni443       O446   1.930       .  S
Ni443       O448   1.947       .  S
C444        O454   1.279       .  A
C444        C583   1.514       .  S
O445       Ni461   1.959       .  S
O445        C451   1.291       .  A
O446        C451   1.271       .  A
C447       C1051   1.527       .  S
O448        C450   1.284       .  A
O449       Ni460   1.940       .  S
C450        O456   1.273       .  A
C450       C1680   1.525       .  S
C451       C1942   1.511       .  S
H452        O453   0.965       .  S
O453       Ni461   1.919       .  S
O453       Ni455   1.937       .  S
O453       Ni460   1.919       .  S
O454       Ni455   1.967       .  S
Ni455       O459   1.959       .  S
Ni455       O457   1.962       .  S
O456       Ni461   1.958       .  S
C458        O459   1.285       .  A
O463       Ni469   1.978   1_655  S
O463        C484   1.298       .  A
O464       Ni487   1.953       .  S
O464        C473   1.300       .  A
O465       Ni469   1.817   1_655  S
O465       Ni487   1.856   1_655  S
O465       Ni481   1.858       .  S
O465        H488   0.967       .  S
C466        O483   1.315       .  A
C466        O475   1.297       .  A
C466       C1206   1.511       .  S
O467       Ni486   1.973   1_455  S
O467        C473   1.299       .  A
O468       Ni486   1.923       .  S
O468        C470   1.285       .  A
Ni469       O472   1.902       .  S
Ni469       O474   1.909       .  S
C470        O480   1.303       .  A
O471       Ni487   1.966       .  S
O471        C477   1.311       .  A
O472        C477   1.294       .  A
C473       C2196   1.510       .  S
O474        C476   1.287       .  A
O475       Ni486   1.923       .  S
C476        O482   1.302       .  A
C476       C1559   1.565       .  S
C477        C731   1.490       .  S
H478        O479   0.967       .  S
O479       Ni487   1.862       .  S
O479       Ni481   1.855   1_455  S
O479       Ni486   1.815   1_455  S
O480       Ni481   2.054       .  S
Ni481       O485   1.945       .  S
Ni481       O483   1.982       .  S
O482       Ni487   2.053       .  S
C484        O485   1.301       .  A
C484       C1941   1.510       .  S
O489       Ni495   1.917   1_565  S
O489        C510   1.273       .  A
O490       Ni513   1.945       .  S
O490        C499   1.277       .  A
O491       Ni495   1.921   1_566  S
O491       Ni513   1.915   1_565  S
O491       Ni507   1.939   1_556  S
O491        H514   0.966       .  S
C492        O509   1.303       .  A
C492        O501   1.273       .  A
C492       C1239   1.543       .  S
O493       Ni512   1.911   1_556  S
O493        C499   1.270       .  A
O494       Ni512   1.948   1_566  S
O494        C496   1.282       .  A
Ni495       O498   1.953   1_554  S
Ni495       O500   1.955       .  S
C496        O506   1.279       .  A
O497       Ni513   1.954       .  S
O497        C503   1.287       .  A
O498        C503   1.275       .  A
C499       C1519   1.490       .  S
O500        C502   1.285       .  A
O501       Ni512   1.934   1_565  S
C502        O508   1.285       .  A
C502       C2128   1.546       .  S
C503        C978   1.536       .  S
H504        O505   0.967       .  S
O505       Ni513   1.923   1_554  S
O505       Ni507   1.916   1_545  S
O505       Ni512   1.915       .  S
O506       Ni507   1.983   1_556  S
Ni507       O511   1.952       .  S
Ni507       O509   1.990       .  S
O508       Ni513   1.994   1_554  S
C510        O511   1.283       .  A
C510        C617   1.496       .  S
C515        N516   1.353       .  A
C515        N520   1.355       .  A
C515       C2403   1.419       .  S
N516        C517   1.348       .  A
C517        N518   1.356       .  A
C517       C2408   1.424       .  S
N518        C519   1.356       .  A
C519        N520   1.357       .  A
C519       C2405   1.429       .  S
N521        C526   1.346       .  A
N521        C525   1.346       .  A
N521        H553   1.042       .  S
N522        C529   1.346       .  A
N522        C530   1.344       .  A
N523        C528   1.365       .  A
N523        C527   1.372       .  A
N523        H554   1.041       .  S
N524        C531   1.357       .  A
N524        C532   1.350       .  A
C525        C533   1.387       .  A
C525        C541   1.399       .  A
C526        C542   1.399       .  A
C526        C534   1.388       .  A
C527        C535   1.387       .  A
C527        C544   1.451       .  A
C528        C543   1.452       .  A
C528        C536   1.391       .  A
C529        C541   1.392       .  A
C529        C537   1.383       .  A
C530        C544   1.405       .  A
C530        C538   1.388       .  A
C531        C539   1.377       .  A
C531        C542   1.403       .  A
C532        C540   1.390       .  A
C532        C543   1.420       .  A
C533        C534   1.373       .  A
C533        H545   1.082       .  S
C534        H546   1.082       .  S
C535        C536   1.403       .  A
C535        H547   1.082       .  S
C536        H548   1.082       .  S
C537        C538   1.370       .  A
C537        H549   1.083       .  S
C538        H550   1.080       .  S
C539        C540   1.364       .  A
C539        H551   1.083       .  S
C540        H552   1.070       .  S
C541       C2401   1.431       .  S
C542       C2406   1.444       .  S
C555        N556   1.352       .  A
C555        N560   1.356       .  A
C555       C2397   1.421       .  S
N556        C557   1.353       .  A
C557        N558   1.352       .  A
C557       C2399   1.425       .  S
N558        C559   1.356       .  A
C559        N560   1.354       .  A
C559       C2395   1.425       .  S
N561        C566   1.352       .  A
N561        C565   1.347       .  A
N561        H593   1.038       .  S
N562        C569   1.355       .  A
N562        C570   1.355       .  A
N563        C568   1.368       .  A
N563        C567   1.358       .  A
N563        H594   1.038       .  S
N564        C571   1.347       .  A
N564        C572   1.339       .  A
C565        C573   1.387       .  A
C565        C581   1.404       .  A
C566        C582   1.411       .  A
C566        C574   1.387       .  A
C567        C575   1.389       .  A
C567        C584   1.442       .  A
C568        C583   1.443       .  A
C568        C576   1.388       .  A
C569        C581   1.408       .  A
C569        C577   1.381       .  A
C570        C584   1.422       .  A
C570        C578   1.392       .  A
C571        C579   1.382       .  A
C571        C582   1.397       .  A
C572        C580   1.384       .  A
C572        C583   1.406       .  A
C573        C574   1.373       .  A
C573        H585   1.082       .  S
C574        H586   1.078       .  S
C575        C576   1.401       .  A
C575        H587   1.082       .  S
C576        H588   1.082       .  S
C577        C578   1.364       .  A
C577        H589   1.082       .  S
C578        H590   1.079       .  S
C579        C580   1.369       .  A
C579        H591   1.083       .  S
C580        H592   1.068       .  S
C581       C2396   1.440       .  S
C582       C2394   1.444       .  S
C584        C757   1.509       .  S
N595        C600   1.348       .  A
N595        C599   1.345       .  A
N595        H627   1.037       .  S
N596        C603   1.354       .  A
N596        C604   1.351       .  A
N597        C602   1.366       .  A
N597        C601   1.360       .  A
N597        H628   1.039       .  S
N598        C605   1.343       .  A
N598        C606   1.342       .  A
C599        C607   1.387       .  A
C599        C615   1.401       .  A
C600        C616   1.405       .  A
C600        C608   1.386       .  A
C601        C609   1.387       .  A
C601        C618   1.435       .  A
C602        C617   1.441       .  A
C602        C610   1.388       .  A
C603        C615   1.409       .  A
C603        C611   1.386       .  A
C604        C618   1.411       .  A
C604        C612   1.388       .  A
C605        C613   1.388       .  A
C605        C616   1.402       .  A
C606        C614   1.386       .  A
C606        C617   1.394       .  A
C607        C608   1.378       .  A
C607        H619   1.083       .  S
C608        H620   1.082       .  S
C609        C610   1.395       .  A
C609        H621   1.082   1_554  S
C610        H622   1.082   1_554  S
C611        C612   1.364       .  A
C611        H623   1.082       .  S
C612        H624   1.081       .  S
C613        C614   1.371       .  A
C613        H625   1.082       .  S
C614        H626   1.081       .  S
C615       C2407   1.436       .  S
C616       C2398   1.433       .  S
C629        N630   1.354   1_565  A
C629        N634   1.347       .  A
C629       C2389   1.415   1_565  S
N630        C631   1.353   1_545  A
C631        N632   1.358       .  A
C631       C2391   1.419       .  S
N632        C633   1.351       .  A
C633        N634   1.351       .  A
C633       C2387   1.418       .  S
C635        N636   1.346       .  A
C635        N640   1.354       .  A
C635       C2402   1.419       .  S
N636        C637   1.350       .  A
C637        N638   1.357       .  A
C637       C2393   1.426       .  S
N638        C639   1.362       .  A
C639        N640   1.355       .  A
C639       C2385   1.428       .  S
N641        C646   1.346       .  A
N641        C645   1.346       .  A
N641        H673   1.031       .  S
N642        C649   1.352       .  A
N642        C650   1.347       .  A
N643        C648   1.368       .  A
N643        C647   1.364       .  A
N643        H674   1.039       .  S
N644        C651   1.350       .  A
N644        C652   1.350       .  A
C645        C653   1.385       .  A
C645        C661   1.403       .  A
C646        C662   1.409       .  A
C646        C654   1.390       .  A
C647        C655   1.391       .  A
C647        C664   1.445       .  A
C648        C663   1.437       .  A
C648        C656   1.384       .  A
C649        C661   1.405       .  A
C649        C657   1.380       .  A
C650        C664   1.418       .  A
C650        C658   1.395       .  A
C651        C659   1.389       .  A
C651        C662   1.414       .  A
C652        C660   1.386       .  A
C652        C663   1.406       .  A
C653        C654   1.378       .  A
C653        H665   1.083       .  S
C654        H666   1.082       .  S
C655        C656   1.388       .  A
C655        H667   1.082       .  S
C656        H668   1.082       .  S
C657        C658   1.359       .  A
C657        H669   1.083       .  S
C658        H670   1.077       .  S
C659        C660   1.367       .  A
C659        H671   1.082       .  S
C660        H672   1.082       .  S
C661       C2386   1.440       .  S
C662       C2388   1.436       .  S
N675        C680   1.347       .  A
N675        C679   1.351       .  A
N675        H707   1.038       .  S
N676        C683   1.353       .  A
N676        C684   1.349       .  A
N677        C682   1.369       .  A
N677        C681   1.365       .  A
N677        H708   1.035       .  S
N678        C685   1.352       .  A
N678        C686   1.352       .  A
C679        C687   1.387       .  A
C679        C695   1.404       .  A
C680        C696   1.404       .  A
C680        C688   1.388       .  A
C681        C689   1.390       .  A
C681        C698   1.448       .  A
C682        C697   1.446       .  A
C682        C690   1.386       .  A
C683        C695   1.403       .  A
C683        C691   1.381       .  A
C684        C698   1.419       .  A
C684        C692   1.394       .  A
C685        C693   1.382       .  A
C685        C696   1.403       .  A
C686        C694   1.389       .  A
C686        C697   1.419       .  A
C687        C688   1.369       .  A
C687        H699   1.082   1_545  S
C688        H700   1.082   1_545  S
C689        C690   1.394       .  A
C689        H701   1.082       .  S
C690        H702   1.082       .  S
C691        C692   1.361       .  A
C691        H703   1.083       .  S
C692        H704   1.076       .  S
C693        C694   1.359       .  A
C693        H705   1.083       .  S
C694        H706   1.073       .  S
C695       C2400   1.443       .  S
C696       C2390   1.432       .  S
N709        C714   1.349       .  A
N709        C713   1.349       .  A
N709        H741   1.036       .  S
N710        C717   1.346       .  A
N710        C718   1.344       .  A
N711        C716   1.354       .  A
N711        C715   1.358       .  A
N711        H742   1.038       .  S
N712        C719   1.352       .  A
N712        C720   1.350       .  A
C713        C721   1.390       .  A
C713        C729   1.411       .  A
C714        C730   1.405       .  A
C714        C722   1.387       .  A
C715        C723   1.388       .  A
C715        C732   1.429       .  A
C716        C731   1.423       .  A
C716        C724   1.386       .  A
C717        C729   1.399       .  A
C717        C725   1.381       .  A
C718        C732   1.407       .  A
C718        C726   1.387       .  A
C719        C727   1.382       .  A
C719        C730   1.405       .  A
C720        C728   1.393       .  A
C720        C731   1.420       .  A
C721        C722   1.371       .  A
C721        H733   1.082       .  S
C722        H734   1.083       .  S
C723        C724   1.390       .  A
C723        H735   1.082       .  S
C724        H736   1.081       .  S
C725        C726   1.370       .  A
C725        H737   1.081   1_565  S
C726        H738   1.076   1_565  S
C727        C728   1.361       .  A
C727        H739   1.082       .  S
C728        H740   1.079       .  S
C729       C2392   1.435       .  S
C730       C2404   1.438       .  S
C732       C1298   1.492       .  S
O743       Ni749   1.964   1_545  S
O743        C764   1.284       .  A
O744       Ni767   1.959       .  S
O744        C753   1.298       .  A
O745       Ni749   1.902       .  S
O745       Ni767   1.945       .  S
O745       Ni761   1.929   1_565  S
O745        H768   0.967       .  S
C746        O763   1.320       .  A
C746        O755   1.297       .  A
C746       C2230   1.552       .  S
O747       Ni766   1.998       .  S
O747        C753   1.302       .  A
O748       Ni766   1.929       .  S
O748        C750   1.288       .  A
Ni749       O752   1.942       .  S
Ni749       O754   1.954   1_565  S
C750        O760   1.296       .  A
O751       Ni767   1.937       .  S
O751        C757   1.283       .  A
O752        C757   1.275       .  A
C753       C1240   1.531       .  S
O754        C756   1.293       .  A
O755       Ni766   1.937   1_545  S
C756        O762   1.286       .  A
C756       C1343   1.574       .  S
H758        O759   0.967       .  S
O759       Ni767   1.863   1_545  S
O759       Ni761   1.863       .  S
O759       Ni766   1.837   1_545  S
O760       Ni761   2.025   1_565  S
Ni761       O765   1.973       .  S
Ni761       O763   2.002       .  S
O762       Ni767   2.012   1_545  S
C764        O765   1.292       .  A
C764       C1976   1.533       .  S
O769       Ni775   1.931   1_554  S
O769        C790   1.286       .  A
O770       Ni793   1.900       .  S
O770        C779   1.271       .  A
O771       Ni775   1.836   1_554  S
O771       Ni793   1.846   1_554  S
O771       Ni787   1.871       .  S
O771        H794   0.968       .  S
C772        O789   1.289       .  A
C772        O781   1.283       .  A
C772       C1908   1.509       .  S
O773       Ni792   1.944   1_556  S
O773        C779   1.281       .  A
O774       Ni792   1.960       .  S
O774        C776   1.284       .  A
Ni775       O778   1.905       .  S
Ni775       O780   1.910       .  S
C776        O786   1.288       .  A
C776       C2229   1.546       .  S
O777       Ni793   1.988       .  S
O777        C783   1.310       .  A
O778        C783   1.287       .  A
O780        C782   1.281       .  A
O781       Ni792   1.944       .  S
C782        O788   1.290       .  A
C782        C875   1.527       .  S
C783       C1520   1.515       .  S
H784        O785   0.967       .  S
O785       Ni793   1.903       .  S
O785       Ni787   1.904   1_556  S
O785       Ni792   1.885   1_556  S
O786       Ni787   1.998       .  S
Ni787       O791   1.941       .  S
Ni787       O789   1.944       .  S
O788       Ni793   2.002       .  S
C790        O791   1.298       .  A
C790       C1138   1.485       .  S
C795        N796   1.356       .  A
C795        N800   1.358       .  A
C795       C2380   1.424       .  S
N796        C797   1.351       .  A
C797        N798   1.347       .  A
C797       C2384   1.410       .  S
N798        C799   1.344       .  A
C799        N800   1.358       .  A
C799       C2382   1.419       .  S
C801        N802   1.351       .  A
C801        N806   1.354       .  A
C801       C2373   1.415       .  S
N802        C803   1.351       .  A
C803        N804   1.351       .  A
C803       C2377   1.419       .  S
N804        C805   1.355       .  A
C805        N806   1.352       .  A
C805       C2375   1.416   1_556  S
C807        N808   1.348       .  A
C807        N812   1.356       .  A
C807       C2372   1.423       .  S
N808        C809   1.353       .  A
C809        N810   1.354       .  A
C809       C2369   1.424       .  S
N810        C811   1.360       .  A
C811        N812   1.355       .  A
C811       C2367   1.429       .  S
C813        N814   1.356       .  A
C813        N818   1.361       .  A
C813       C2364   1.428       .  S
N814        C815   1.354       .  A
C815        N816   1.348       .  A
C815       C2361   1.425       .  S
N816        C817   1.352       .  A
C817        N818   1.357       .  A
C817       C2366   1.429   1_556  S
N819        C824   1.349       .  A
N819        C823   1.351       .  A
N819        H851   1.038       .  S
N820        C827   1.350       .  A
N820        C828   1.351       .  A
N821        C826   1.359       .  A
N821        C825   1.355       .  A
N821        H852   1.036       .  S
N822        C829   1.350       .  A
N822        C830   1.349       .  A
C823        C831   1.384       .  A
C823        C839   1.402       .  A
C824        C840   1.413       .  A
C824        C832   1.391       .  A
C825        C833   1.385       .  A
C825        C842   1.425       .  A
C826        C841   1.431       .  A
C826        C834   1.389       .  A
C827        C839   1.403       .  A
C827        C835   1.384       .  A
C828        C842   1.411       .  A
C828        C836   1.390       .  A
C829        C837   1.384       .  A
C829        C840   1.407       .  A
C830        C838   1.382       .  A
C830        C841   1.412       .  A
C831        C832   1.375       .  A
C831        H843   1.082       .  S
C832        H844   1.082       .  S
C833        C834   1.387       .  A
C833        H845   1.082       .  S
C834        H846   1.082       .  S
C835        C836   1.359       .  A
C835        H847   1.082       .  S
C836        H848   1.078       .  S
C837        C838   1.369       .  A
C837        H849   1.083       .  S
C838        H850   1.069       .  S
C839       C2362   1.439       .  S
C840       C2370   1.441       .  S
N853        C858   1.342       .  A
N853        C857   1.347       .  A
N853        H885   1.042       .  S
N854        C861   1.347       .  A
N854        C862   1.341       .  A
N855        C860   1.363       .  A
N855        C859   1.370       .  A
N855        H886   1.041       .  S
N856        C863   1.355       .  A
N856        C864   1.352       .  A
C857        C865   1.390       .  A
C857        C873   1.405       .  A
C858        C874   1.394       .  A
C858        C866   1.386       .  A
C859        C867   1.390       .  A
C859        C876   1.456       .  A
C860        C875   1.453       .  A
C860        C868   1.390       .  A
C861        C873   1.395       .  A
C861        C869   1.378       .  A
C862        C876   1.409       .  A
C862        C870   1.388       .  A
C863        C871   1.376       .  A
C863        C874   1.394       .  A
C864        C872   1.388       .  A
C864        C875   1.421       .  A
C865        C866   1.374       .  A
C865        H877   1.081       .  S
C866        H878   1.082       .  S
C867        C868   1.412       .  A
C867        H879   1.082       .  S
C868        H880   1.082       .  S
C869        C870   1.376       .  A
C869        H881   1.081       .  S
C870        H882   1.079       .  S
C871        C872   1.361       .  A
C871        H883   1.083       .  S
C872        H884   1.068       .  S
C873       C2368   1.439       .  S
C874       C2374   1.430       .  S
C876       C1264   1.543       .  S
N887        C892   1.353       .  A
N887        C891   1.348       .  A
N887        H919   1.032       .  S
N888        C895   1.351       .  A
N888        C896   1.353       .  A
N889        C894   1.366       .  A
N889        C893   1.367       .  A
N889        H920   1.036       .  S
N890        C897   1.351       .  A
N890        C898   1.348       .  A
C891        C899   1.388       .  A
C891        C907   1.407       .  A
C892        C908   1.409       .  A
C892        C900   1.387       .  A
C893        C901   1.386       .  A
C893        C910   1.444       .  A
C894        C909   1.447       .  A
C894        C902   1.390       .  A
C895        C907   1.410       .  A
C895        C903   1.386       .  A
C896        C910   1.416       .  A
C896        C904   1.389       .  A
C897        C905   1.387       .  A
C897        C908   1.408       .  A
C898        C906   1.390       .  A
C898        C909   1.412       .  A
C899        C900   1.369       .  A
C899        H911   1.083       .  S
C900        H912   1.082       .  S
C901        C902   1.390       .  A
C901        H913   1.082       .  S
C902        H914   1.081       .  S
C903        C904   1.358       .  A
C903        H915   1.083       .  S
C904        H916   1.077       .  S
C905        C906   1.356       .  A
C905        H917   1.082       .  S
C906        H918   1.082       .  S
C907       C2381   1.436       .  S
C908       C2371   1.441       .  S
N921        C926   1.344       .  A
N921        C925   1.350       .  A
N921        H953   1.042       .  S
N922        C929   1.343       .  A
N922        C930   1.336       .  A
N923        C928   1.362       .  A
N923        C927   1.373       .  A
N923        H954   1.040       .  S
N924        C931   1.351       .  A
N924        C932   1.354       .  A
C925        C933   1.387       .  A
C925        C941   1.409       .  A
C926        C942   1.401       .  A
C926        C934   1.387       .  A
C927        C935   1.389       .  A
C927        C944   1.458       .  A
C928        C943   1.456       .  A
C928        C936   1.391       .  A
C929        C941   1.397       .  A
C929        C937   1.383       .  A
C930        C944   1.406       .  A
C930        C938   1.392       .  A
C931        C939   1.382       .  A
C931        C942   1.404       .  A
C932        C940   1.392       .  A
C932        C943   1.420       .  A
C933        C934   1.378       .  A
C933        H945   1.079       .  S
C934        H946   1.082       .  S
C935        C936   1.412       .  A
C935        H947   1.082       .  S
C936        H948   1.082       .  S
C937        C938   1.382       .  A
C937        H949   1.082       .  S
C938        H950   1.083       .  S
C939        C940   1.366       .  A
C939        H951   1.082       .  S
C940        H952   1.080       .  S
C941       C2365   1.442       .  S
C942       C2376   1.431       .  S
N955        C960   1.344       .  A
N955        C959   1.345       .  A
N955        H987   1.041       .  S
N956        C963   1.353       .  A
N956        C964   1.350       .  A
N957        C962   1.377       .  A
N957        C961   1.372       .  A
N957        H988   1.041       .  S
N958        C965   1.354       .  A
N958        C966   1.346       .  A
C959        C967   1.386       .  A
C959        C975   1.395       .  A
C960        C976   1.401       .  A
C960        C968   1.389       .  A
C961        C969   1.392       .  A
C961        C978   1.468       .  A
C962        C977   1.464       .  A
C962        C970   1.388       .  A
C963        C975   1.398       .  A
C963        C971   1.376       .  A
C964        C978   1.423       .  A
C964        C972   1.398       .  A
C965        C973   1.380       .  A
C965        C976   1.401       .  A
C966        C974   1.383       .  A
C966        C977   1.415       .  A
C967        C968   1.376       .  A
C967        H979   1.083       .  S
C968        H980   1.082       .  S
C969        C970   1.408       .  A
C969        H981   1.081       .  S
C970        H982   1.082       .  S
C971        C972   1.362       .  A
C971        H983   1.083       .  S
C972        H984   1.074       .  S
C973        C974   1.368       .  A
C973        H985   1.083       .  S
C974        H986   1.070       .  S
C975       C2378   1.435       .  S
C976       C2379   1.439       .  S
N989        C994   1.343       .  A
N989        C993   1.343       .  A
N989       H1021   1.042       .  S
N990        C997   1.346       .  A
N990        C998   1.338       .  A
N991        C996   1.367       .  A
N991        C995   1.365       .  A
N991       H1022   1.044       .  S
N992        C999   1.347       .  A
N992       C1000   1.345       .  A
C993       C1001   1.392       .  A
C993       C1009   1.408       .  A
C994       C1010   1.393       .  A
C994       C1002   1.384       .  A
C995       C1003   1.392       .  A
C995       C1012   1.453       .  A
C996       C1011   1.450       .  A
C996       C1004   1.388       .  A
C997       C1009   1.402       .  A
C997       C1005   1.383       .  A
C998       C1012   1.403       .  A
C998       C1006   1.393       .  A
C999       C1007   1.379       .  A
C999       C1010   1.389       .  A
C1000      C1008   1.381       .  A
C1000      C1011   1.406       .  A
C1001      C1002   1.379       .  A
C1001      H1013   1.080       .  S
C1002      H1014   1.082       .  S
C1003      C1004   1.411       .  A
C1003      H1015   1.082   1_455  S
C1004      H1016   1.082   1_455  S
C1005      C1006   1.381       .  A
C1005      H1017   1.083       .  S
C1006      H1018   1.082       .  S
C1007      C1008   1.364       .  A
C1007      H1019   1.083       .  S
C1008      H1020   1.064       .  S
C1009      C2363   1.438       .  S
C1010      C2383   1.427       .  S
C1011      C1994   1.532       .  S
C1023      N1024   1.356       .  A
C1023      N1028   1.358       .  A
C1023      C2359   1.428       .  S
N1024      C1025   1.356       .  A
C1025      N1026   1.350       .  A
C1025      C2355   1.424       .  S
N1026      C1027   1.353       .  A
C1027      N1028   1.355       .  A
C1027      C2358   1.425       .  S
N1029      C1034   1.347       .  A
N1029      C1033   1.347       .  A
N1029      H1061   1.041       .  S
N1030      C1037   1.350       .  A
N1030      C1038   1.350       .  A
N1031      C1036   1.371       .  A
N1031      C1035   1.367       .  A
N1031      H1062   1.040       .  S
N1032      C1039   1.350       .  A
N1032      C1040   1.348       .  A
C1033      C1041   1.384       .  A
C1033      C1049   1.395       .  A
C1034      C1050   1.404       .  A
C1034      C1042   1.390       .  A
C1035      C1043   1.393       .  A
C1035      C1052   1.456       .  A
C1036      C1051   1.449       .  A
C1036      C1044   1.385       .  A
C1037      C1049   1.401       .  A
C1037      C1045   1.380       .  A
C1038      C1052   1.417       .  A
C1038      C1046   1.396       .  A
C1039      C1047   1.375       .  A
C1039      C1050   1.395       .  A
C1040      C1048   1.389       .  A
C1040      C1051   1.414       .  A
C1041      C1042   1.370       .  A
C1041      H1053   1.082       .  S
C1042      H1054   1.081       .  S
C1043      C1044   1.393       .  A
C1043      H1055   1.080       .  S
C1044      H1056   1.082       .  S
C1045      C1046   1.360       .  A
C1045      H1057   1.083       .  S
C1046      H1058   1.077       .  S
C1047      C1048   1.367       .  A
C1047      H1059   1.080       .  S
C1048      H1060   1.073       .  S
C1049      C2353   1.436       .  S
C1050      C2356   1.438       .  S
C1063      N1064   1.348       .  A
C1063      N1068   1.354       .  A
C1063      C2348   1.419       .  S
N1064      C1065   1.349       .  A
C1065      N1066   1.359       .  A
C1065      C2349   1.417       .  S
N1066      C1067   1.357       .  A
C1067      N1068   1.356       .  A
C1067      C2351   1.431       .  S
C1069      N1070   1.359       .  A
C1069      N1074   1.350       .  A
C1069      C2343   1.424       .  S
N1070      C1071   1.357       .  A
C1071      N1072   1.355       .  A
C1071      C2346   1.426       .  S
N1072      C1073   1.351       .  A
C1073      N1074   1.352       .  A
C1073      C2342   1.419       .  S
C1075      N1076   1.355       .  A
C1075      N1080   1.347       .  A
C1075      C2354   1.418       .  S
N1076      C1077   1.357       .  A
C1077      N1078   1.358       .  A
C1077      C2337   1.420       .  S
N1078      C1079   1.352       .  A
C1079      N1080   1.348       .  A
C1079      C2340   1.419       .  S
N1081      C1086   1.345       .  A
N1081      C1085   1.344       .  A
N1081      H1113   1.041       .  S
N1082      C1089   1.346       .  A
N1082      C1090   1.341       .  A
N1083      C1088   1.357       .  A
N1083      C1087   1.365       .  A
N1083      H1114   1.042       .  S
N1084      C1091   1.350       .  A
N1084      C1092   1.345       .  A
C1085      C1093   1.389       .  A
C1085      C1101   1.404       .  A
C1086      C1102   1.396       .  A
C1086      C1094   1.385       .  A
C1087      C1095   1.386       .  A
C1087      C1104   1.436       .  A
C1088      C1103   1.440       .  A
C1088      C1096   1.391       .  A
C1089      C1101   1.396       .  A
C1089      C1097   1.383       .  A
C1090      C1104   1.404       .  A
C1090      C1098   1.388       .  A
C1091      C1099   1.383       .  A
C1091      C1102   1.398       .  A
C1092      C1100   1.391       .  A
C1092      C1103   1.408       .  A
C1093      C1094   1.378       .  A
C1093      H1105   1.080       .  S
C1094      H1106   1.082       .  S
C1095      C1096   1.399       .  A
C1095      H1107   1.082       .  S
C1096      H1108   1.082       .  S
C1097      C1098   1.374       .  A
C1097      H1109   1.082   1_554  S
C1098      H1110   1.077   1_554  S
C1099      C1100   1.368       .  A
C1099      H1111   1.082       .  S
C1100      H1112   1.083       .  S
C1101      C2341   1.433       .  S
C1102      C2338   1.433       .  S
N1115      C1120   1.344       .  A
N1115      C1119   1.342       .  A
N1115      H1147   1.040       .  S
N1116      C1123   1.351       .  A
N1116      C1124   1.349       .  A
N1117      C1122   1.359       .  A
N1117      C1121   1.353       .  A
N1117      H1148   1.040       .  S
N1118      C1125   1.346       .  A
N1118      C1126   1.341       .  A
C1119      C1127   1.386       .  A
C1119      C1135   1.396       .  A
C1120      C1136   1.403       .  A
C1120      C1128   1.388       .  A
C1121      C1129   1.388       .  A
C1121      C1138   1.427       .  A
C1122      C1137   1.428       .  A
C1122      C1130   1.387       .  A
C1123      C1135   1.407       .  A
C1123      C1131   1.387       .  A
C1124      C1138   1.410       .  A
C1124      C1132   1.389       .  A
C1125      C1133   1.382       .  A
C1125      C1136   1.394       .  A
C1126      C1134   1.389       .  A
C1126      C1137   1.403       .  A
C1127      C1128   1.381       .  A
C1127      H1139   1.082       .  S
C1128      H1140   1.082       .  S
C1129      C1130   1.396       .  A
C1129      H1141   1.082       .  S
C1130      H1142   1.082       .  S
C1131      C1132   1.363       .  A
C1131      H1143   1.081       .  S
C1132      H1144   1.082       .  S
C1133      C1134   1.373       .  A
C1133      H1145   1.082       .  S
C1134      H1146   1.079       .  S
C1135      C2347   1.433       .  S
C1136      C2339   1.434       .  S
N1149      C1154   1.349       .  A
N1149      C1153   1.348       .  A
N1149      H1181   1.037       .  S
N1150      C1157   1.351       .  A
N1150      C1158   1.352       .  A
N1151      C1156   1.354       .  A
N1151      C1155   1.357       .  A
N1151      H1182   1.039       .  S
N1152      C1159   1.351       .  A
N1152      C1160   1.347       .  A
C1153      C1161   1.388   1_556  A
C1153      C1169   1.407       .  A
C1154      C1170   1.408       .  A
C1154      C1162   1.387   1_556  A
C1155      C1163   1.388       .  A
C1155      C1172   1.421       .  A
C1156      C1171   1.420       .  A
C1156      C1164   1.387       .  A
C1157      C1169   1.412       .  A
C1157      C1165   1.385       .  A
C1158      C1172   1.416       .  A
C1158      C1166   1.389       .  A
C1159      C1167   1.385       .  A
C1159      C1170   1.407       .  A
C1160      C1168   1.389       .  A
C1160      C1171   1.410       .  A
C1161      C1162   1.379       .  A
C1161      H1173   1.082       .  S
C1162      H1174   1.083       .  S
C1163      C1164   1.379       .  A
C1163      H1175   1.081       .  S
C1164      H1176   1.082       .  S
C1165      C1166   1.369       .  A
C1165      H1177   1.082       .  S
C1166      H1178   1.079       .  S
C1167      C1168   1.371       .  A
C1167      H1179   1.082       .  S
C1168      H1180   1.082       .  S
C1169      C2345   1.442   1_556  S
C1170      C2352   1.445       .  S
C1171      C1265   1.479       .  S
N1183      C1188   1.351       .  A
N1183      C1187   1.349       .  A
N1183      H1215   1.036       .  S
N1184      C1191   1.355       .  A
N1184      C1192   1.353       .  A
N1185      C1190   1.367       .  A
N1185      C1189   1.358       .  A
N1185      H1216   1.040       .  S
N1186      C1193   1.339       .  A
N1186      C1194   1.337       .  A
C1187      C1195   1.383       .  A
C1187      C1203   1.403       .  A
C1188      C1204   1.419       .  A
C1188      C1196   1.391       .  A
C1189      C1197   1.389       .  A
C1189      C1206   1.440       .  A
C1190      C1205   1.445       .  A
C1190      C1198   1.388       .  A
C1191      C1203   1.409       .  A
C1191      C1199   1.382       .  A
C1192      C1206   1.424       .  A
C1192      C1200   1.394       .  A
C1193      C1201   1.386       .  A
C1193      C1204   1.396       .  A
C1194      C1202   1.390       .  A
C1194      C1205   1.396       .  A
C1195      C1196   1.372       .  A
C1195      H1207   1.083       .  S
C1196      H1208   1.076       .  S
C1197      C1198   1.404       .  A
C1197      H1209   1.082   1_655  S
C1198      H1210   1.082   1_655  S
C1199      C1200   1.359       .  A
C1199      H1211   1.082       .  S
C1200      H1212   1.078       .  S
C1201      C1202   1.376       .  A
C1201      H1213   1.083       .  S
C1202      H1214   1.083       .  S
C1203      C2357   1.442       .  S
C1204      C2350   1.435       .  S
N1217      C1222   1.341       .  A
N1217      C1221   1.349       .  A
N1217      H1249   1.037       .  S
N1218      C1225   1.349       .  A
N1218      C1226   1.342       .  A
N1219      C1224   1.372       .  A
N1219      C1223   1.378       .  A
N1219      H1250   1.038       .  S
N1220      C1227   1.358       .  A
N1220      C1228   1.359       .  A
C1221      C1229   1.386       .  A
C1221      C1237   1.402       .  A
C1222      C1238   1.398       .  A
C1222      C1230   1.388       .  A
C1223      C1231   1.387       .  A
C1223      C1240   1.463       .  A
C1224      C1239   1.468       .  A
C1224      C1232   1.392       .  A
C1225      C1237   1.401       .  A
C1225      C1233   1.384       .  A
C1226      C1240   1.402       .  A
C1226      C1234   1.389       .  A
C1227      C1235   1.384       .  A
C1227      C1238   1.416       .  A
C1228      C1236   1.391       .  A
C1228      C1239   1.425       .  A
C1229      C1230   1.378       .  A
C1229      H1241   1.082       .  S
C1230      H1242   1.083       .  S
C1231      C1232   1.406       .  A
C1231      H1243   1.082   1_565  S
C1232      H1244   1.082   1_565  S
C1233      C1234   1.369       .  A
C1233      H1245   1.082       .  S
C1234      H1246   1.081       .  S
C1235      C1236   1.358       .  A
C1235      H1247   1.082       .  S
C1236      H1248   1.078       .  S
C1237      C2360   1.441       .  S
C1238      C2344   1.437       .  S
O1251     Ni1257   1.945       .  S
O1251      C1272   1.277       .  A
O1252     Ni1275   1.944       .  S
O1252      C1261   1.279       .  A
O1253     Ni1257   1.916       .  S
O1253     Ni1275   1.946       .  S
O1253     Ni1269   1.928       .  S
O1253      H1276   0.966       .  S
C1254      O1271   1.283       .  A
C1254      O1263   1.276       .  A
C1254      C1874   1.496       .  S
O1255     Ni1274   1.904       .  S
O1255      C1261   1.268       .  A
O1256     Ni1274   1.917       .  S
O1256      C1258   1.278       .  A
Ni1257     O1260   1.914       .  S
Ni1257     O1262   1.931       .  S
C1258      O1268   1.288       .  A
C1258      C1679   1.538       .  S
O1259     Ni1275   1.910       .  S
O1259      C1265   1.273       .  A
O1260      C1265   1.269       .  A
O1262      C1264   1.285       .  A
O1263     Ni1274   1.910       .  S
C1264      O1270   1.281       .  A
H1266      O1267   0.966       .  S
O1267     Ni1275   1.897       .  S
O1267     Ni1269   1.913       .  S
O1267     Ni1274   1.878       .  S
O1268     Ni1269   2.000       .  S
Ni1269     O1273   1.959       .  S
Ni1269     O1271   1.936       .  S
O1270     Ni1275   1.989       .  S
C1272      O1273   1.284       .  A
C1272      C1418   1.513       .  S
O1277     Ni1283   1.940       .  S
O1277      C1298   1.275       .  A
O1278     Ni1301   1.905   1_545  S
O1278      C1287   1.267       .  A
O1279     Ni1283   1.915   1_655  S
O1279     Ni1301   1.920       .  S
O1279     Ni1295   1.914   1_665  S
O1279      H1302   0.967       .  S
C1280      O1297   1.287       .  A
C1280      O1289   1.274       .  A
C1280      C2088   1.496       .  S
O1281     Ni1300   1.924   1_655  S
O1281      C1287   1.275       .  A
O1282     Ni1300   1.969   1_655  S
O1282      C1284   1.285       .  A
Ni1283     O1286   1.948   1_455  S
Ni1283     O1288   1.954       .  S
C1284      O1294   1.278       .  A
C1284      C1975   1.557       .  S
O1285     Ni1301   1.943       .  S
O1285      C1291   1.285       .  A
O1286      C1291   1.276       .  A
C1287      C1486   1.476       .  S
O1288      C1290   1.286       .  A
O1289     Ni1300   1.936       .  S
C1290      O1296   1.275       .  A
C1290      C1714   1.545       .  S
H1292      O1293   0.966       .  S
O1293     Ni1301   1.905   1_445  S
O1293     Ni1295   1.905       .  S
O1293     Ni1300   1.909       .  S
O1294     Ni1295   1.980   1_655  S
Ni1295     O1299   1.910   1_545  S
Ni1295     O1297   1.935       .  S
O1296     Ni1301   1.978   1_455  S
C1298      O1299   1.268       .  A
C1303      N1304   1.352       .  A
C1303      N1308   1.352   1_545  A
C1303      C2333   1.420       .  S
N1304      C1305   1.350       .  A
C1305      N1306   1.355       .  A
C1305      C2331   1.417       .  S
N1306      C1307   1.352   1_545  A
C1307      N1308   1.356       .  A
C1307      C2336   1.421       .  S
C1309      N1310   1.360       .  A
C1309      N1314   1.353   1_545  A
C1309      C2330   1.419       .  S
N1310      C1311   1.357       .  A
C1311      N1312   1.348       .  A
C1311      C2326   1.422       .  S
N1312      C1313   1.347       .  A
C1313      N1314   1.349   1_545  A
C1313      C2328   1.412   1_545  S
C1315      N1316   1.357       .  A
C1315      N1320   1.349       .  A
C1315      C2320   1.420       .  S
N1316      C1317   1.356       .  A
C1317      N1318   1.357       .  A
C1317      C2321   1.427       .  S
N1318      C1319   1.353       .  A
C1319      N1320   1.351       .  A
C1319      C2323   1.420       .  S
N1321      C1326   1.348       .  A
N1321      C1325   1.341       .  A
N1321      H1353   1.041       .  S
N1322      C1329   1.360       .  A
N1322      C1330   1.358       .  A
N1323      C1328   1.382       .  A
N1323      C1327   1.371       .  A
N1323      H1354   1.041       .  S
N1324      C1331   1.343       .  A
N1324      C1332   1.337       .  A
C1325      C1333   1.390       .  A
C1325      C1341   1.402       .  A
C1326      C1342   1.404       .  A
C1326      C1334   1.386       .  A
C1327      C1335   1.393       .  A
C1327      C1344   1.474       .  A
C1328      C1343   1.476       .  A
C1328      C1336   1.391       .  A
C1329      C1341   1.413       .  A
C1329      C1337   1.381       .  A
C1330      C1344   1.431       .  A
C1330      C1338   1.393       .  A
C1331      C1339   1.381       .  A
C1331      C1342   1.388       .  A
C1332      C1340   1.387       .  A
C1332      C1343   1.397       .  A
C1333      C1334   1.384       .  A
C1333      H1345   1.082       .  S
C1334      H1346   1.082       .  S
C1335      C1336   1.419       .  A
C1335      H1347   1.082       .  S
C1336      H1348   1.082       .  S
C1337      C1338   1.363       .  A
C1337      H1349   1.082       .  S
C1338      H1350   1.080       .  S
C1339      C1340   1.375       .  A
C1339      H1351   1.082       .  S
C1340      H1352   1.077       .  S
C1341      C2322   1.442       .  S
C1342      C2325   1.435       .  S
N1355      C1360   1.339       .  A
N1355      C1359   1.345       .  A
N1355      H1387   1.038       .  S
N1356      C1363   1.345       .  A
N1356      C1364   1.343       .  A
N1357      C1362   1.364       .  A
N1357      C1361   1.364       .  A
N1357      H1388   1.042       .  S
N1358      C1365   1.353       .  A
N1358      C1366   1.347       .  A
C1359      C1367   1.388       .  A
C1359      C1375   1.402       .  A
C1360      C1376   1.396       .  A
C1360      C1368   1.386       .  A
C1361      C1369   1.390       .  A
C1361      C1378   1.449       .  A
C1362      C1377   1.447       .  A
C1362      C1370   1.389       .  A
C1363      C1375   1.397       .  A
C1363      C1371   1.382       .  A
C1364      C1378   1.404       .  A
C1364      C1372   1.391       .  A
C1365      C1373   1.384       .  A
C1365      C1376   1.405       .  A
C1366      C1374   1.387       .  A
C1366      C1377   1.410       .  A
C1367      C1368   1.383       .  A
C1367      H1379   1.082       .  S
C1368      H1380   1.082       .  S
C1369      C1370   1.407       .  A
C1369      H1381   1.082       .  S
C1370      H1382   1.082       .  S
C1371      C1372   1.368       .  A
C1371      H1383   1.082       .  S
C1372      H1384   1.081       .  S
C1373      C1374   1.365       .  A
C1373      H1385   1.082       .  S
C1374      H1386   1.077       .  S
C1375      C2332   1.431       .  S
C1376      C2319   1.432       .  S
C1389      N1390   1.356       .  A
C1389      N1394   1.351       .  A
C1389      C2318   1.420       .  S
N1390      C1391   1.354       .  A
C1391      N1392   1.355       .  A
C1391      C2316   1.422       .  S
N1392      C1393   1.352       .  A
C1393      N1394   1.352       .  A
C1393      C2313   1.420       .  S
N1395      C1400   1.342       .  A
N1395      C1399   1.343       .  A
N1395      H1427   1.040       .  S
N1396      C1403   1.353       .  A
N1396      C1404   1.348       .  A
N1397      C1402   1.369       .  A
N1397      C1401   1.362       .  A
N1397      H1428   1.042       .  S
N1398      C1405   1.348       .  A
N1398      C1406   1.341       .  A
C1399      C1407   1.388       .  A
C1399      C1415   1.398       .  A
C1400      C1416   1.401       .  A
C1400      C1408   1.388       .  A
C1401      C1409   1.390       .  A
C1401      C1418   1.449       .  A
C1402      C1417   1.452       .  A
C1402      C1410   1.390       .  A
C1403      C1415   1.400       .  A
C1403      C1411   1.378       .  A
C1404      C1418   1.413       .  A
C1404      C1412   1.385       .  A
C1405      C1413   1.382       .  A
C1405      C1416   1.396       .  A
C1406      C1414   1.391       .  A
C1406      C1417   1.409       .  A
C1407      C1408   1.380       .  A
C1407      H1419   1.083       .  S
C1408      H1420   1.082       .  S
C1409      C1410   1.407       .  A
C1409      H1421   1.082       .  S
C1410      H1422   1.082       .  S
C1411      C1412   1.365       .  A
C1411      H1423   1.082       .  S
C1412      H1424   1.066       .  S
C1413      C1414   1.375       .  A
C1413      H1425   1.082       .  S
C1414      H1426   1.082       .  S
C1415      C2314   1.435       .  S
C1416      C2324   1.433       .  S
N1429      C1434   1.345       .  A
N1429      C1433   1.350       .  A
N1429      H1461   1.041       .  S
N1430      C1437   1.345       .  A
N1430      C1438   1.339       .  A
N1431      C1436   1.359       .  A
N1431      C1435   1.363       .  A
N1431      H1462   1.040       .  S
N1432      C1439   1.349       .  A
N1432      C1440   1.355       .  A
C1433      C1441   1.389       .  A
C1433      C1449   1.409       .  A
C1434      C1450   1.399       .  A
C1434      C1442   1.387       .  A
C1435      C1443   1.389       .  A
C1435      C1452   1.439       .  A
C1436      C1451   1.436       .  A
C1436      C1444   1.386       .  A
C1437      C1449   1.397       .  A
C1437      C1445   1.384       .  A
C1438      C1452   1.403       .  A
C1438      C1446   1.386       .  A
C1439      C1447   1.384       .  A
C1439      C1450   1.406       .  A
C1440      C1448   1.387       .  A
C1440      C1451   1.416       .  A
C1441      C1442   1.375       .  A
C1441      H1453   1.082       .  S
C1442      H1454   1.082   1_565  S
C1443      C1444   1.399       .  A
C1443      H1455   1.082       .  S
C1444      H1456   1.082       .  S
C1445      C1446   1.371       .  A
C1445      H1457   1.083       .  S
C1446      H1458   1.073       .  S
C1447      C1448   1.364       .  A
C1447      H1459   1.081       .  S
C1448      H1460   1.080       .  S
C1449      C2335   1.436       .  S
C1450      C2327   1.429       .  S
N1463      C1468   1.342       .  A
N1463      C1467   1.349       .  A
N1463      H1495   1.040       .  S
N1464      C1471   1.341       .  A
N1464      C1472   1.335       .  A
N1465      C1470   1.353       .  A
N1465      C1469   1.354       .  A
N1465      H1496   1.041       .  S
N1466      C1473   1.355       .  A
N1466      C1474   1.355       .  A
C1467      C1475   1.390       .  A
C1467      C1483   1.409       .  A
C1468      C1484   1.393       .  A
C1468      C1476   1.384       .  A
C1469      C1477   1.388       .  A
C1469      C1486   1.421       .  A
C1470      C1485   1.415       .  A
C1470      C1478   1.385       .  A
C1471      C1483   1.393       .  A
C1471      C1479   1.383       .  A
C1472      C1486   1.393       .  A
C1472      C1480   1.388       .  A
C1473      C1481   1.379       .  A
C1473      C1484   1.405       .  A
C1474      C1482   1.389       .  A
C1474      C1485   1.424       .  A
C1475      C1476   1.375       .  A
C1475      H1487   1.081       .  S
C1476      H1488   1.082       .  S
C1477      C1478   1.390       .  A
C1477      H1489   1.082   1_655  S
C1478      H1490   1.082   1_655  S
C1479      C1480   1.376       .  A
C1479      H1491   1.083   1_545  S
C1480      H1492   1.079   1_545  S
C1481      C1482   1.359       .  A
C1481      H1493   1.082       .  S
C1482      H1494   1.067       .  S
C1483      C2329   1.434       .  S
C1484      C2317   1.434       .  S
C1485      C2000   1.496       .  S
N1497      C1502   1.347       .  A
N1497      C1501   1.344       .  A
N1497      H1529   1.037       .  S
N1498      C1505   1.352       .  A
N1498      C1506   1.350       .  A
N1499      C1504   1.362       .  A
N1499      C1503   1.364       .  A
N1499      H1530   1.042       .  S
N1500      C1507   1.348       .  A
N1500      C1508   1.345       .  A
C1501      C1509   1.387       .  A
C1501      C1517   1.402       .  A
C1502      C1518   1.405       .  A
C1502      C1510   1.388       .  A
C1503      C1511   1.386       .  A
C1503      C1520   1.436       .  A
C1504      C1519   1.437       .  A
C1504      C1512   1.388       .  A
C1505      C1517   1.407       .  A
C1505      C1513   1.385       .  A
C1506      C1520   1.414       .  A
C1506      C1514   1.389       .  A
C1507      C1515   1.386       .  A
C1507      C1518   1.406       .  A
C1508      C1516   1.389       .  A
C1508      C1519   1.404       .  A
C1509      C1510   1.380       .  A
C1509      H1521   1.082       .  S
C1510      H1522   1.082       .  S
C1511      C1512   1.394       .  A
C1511      H1523   1.082   1_556  S
C1512      H1524   1.082   1_556  S
C1513      C1514   1.367       .  A
C1513      H1525   1.082       .  S
C1514      H1526   1.081       .  S
C1515      C1516   1.368       .  A
C1515      H1527   1.082       .  S
C1516      H1528   1.079       .  S
C1517      C2315   1.436       .  S
C1518      C2334   1.438       .  S
C1531      N1532   1.354       .  A
C1531      N1536   1.350       .  A
C1531      C2311   1.418       .  S
N1532      C1533   1.353       .  A
C1533      N1534   1.355       .  A
C1533      C2309   1.419   1_455  S
N1534      C1535   1.353       .  A
C1535      N1536   1.352       .  A
C1535      C2308   1.420       .  S
N1537      C1542   1.341       .  A
N1537      C1541   1.346       .  A
N1537      H1569   1.042       .  S
N1538      C1545   1.348       .  A
N1538      C1546   1.341       .  A
N1539      C1544   1.377       .  A
N1539      C1543   1.379       .  A
N1539      H1570   1.043       .  S
N1540      C1547   1.354       .  A
N1540      C1548   1.352       .  A
C1541      C1549   1.386       .  A
C1541      C1557   1.401       .  A
C1542      C1558   1.399       .  A
C1542      C1550   1.389       .  A
C1543      C1551   1.393       .  A
C1543      C1560   1.478       .  A
C1544      C1559   1.477       .  A
C1544      C1552   1.392       .  A
C1545      C1557   1.401       .  A
C1545      C1553   1.381       .  A
C1546      C1560   1.409       .  A
C1546      C1554   1.393       .  A
C1547      C1555   1.381       .  A
C1547      C1558   1.403       .  A
C1548      C1556   1.387       .  A
C1548      C1559   1.416       .  A
C1549      C1550   1.381       .  A
C1549      H1561   1.082       .  S
C1550      H1562   1.082       .  S
C1551      C1552   1.419       .  A
C1551      H1563   1.082       .  S
C1552      H1564   1.082       .  S
C1553      C1554   1.381       .  A
C1553      H1565   1.082       .  S
C1554      H1566   1.083       .  S
C1555      C1556   1.368       .  A
C1555      H1567   1.083       .  S
C1556      H1568   1.075       .  S
C1557      C2305   1.444       .  S
C1558      C2307   1.434       .  S
C1571      N1572   1.351       .  A
C1571      N1576   1.352       .  A
C1571      C2299   1.409       .  S
N1572      C1573   1.349       .  A
C1573      N1574   1.352       .  A
C1573      C2304   1.416       .  S
N1574      C1575   1.353       .  A
C1575      N1576   1.351       .  A
C1575      C2301   1.414       .  S
C1577      N1578   1.357       .  A
C1577      N1582   1.361       .  A
C1577      C2306   1.435       .  S
N1578      C1579   1.356       .  A
C1579      N1580   1.348       .  A
C1579      C2295   1.416       .  S
N1580      C1581   1.347       .  A
C1581      N1582   1.359       .  A
C1581      C2297   1.425       .  S
N1583      C1588   1.344       .  A
N1583      C1587   1.342       .  A
N1583      H1615   1.037       .  S
N1584      C1591   1.345       .  A
N1584      C1592   1.344       .  A
N1585      C1590   1.364       .  A
N1585      C1589   1.377       .  A
N1585      H1616   1.042       .  S
N1586      C1593   1.351       .  A
N1586      C1594   1.341       .  A
C1587      C1595   1.387       .  A
C1587      C1603   1.399       .  A
C1588      C1604   1.401       .  A
C1588      C1596   1.387       .  A
C1589      C1597   1.389       .  A
C1589      C1606   1.461       .  A
C1590      C1605   1.459       .  A
C1590      C1598   1.392       .  A
C1591      C1603   1.396       .  A
C1591      C1599   1.385       .  A
C1592      C1606   1.403       .  A
C1592      C1600   1.389       .  A
C1593      C1601   1.381       .  A
C1593      C1604   1.397       .  A
C1594      C1602   1.397       .  A
C1594      C1605   1.409       .  A
C1595      C1596   1.377       .  A
C1595      H1607   1.082       .  S
C1596      H1608   1.082       .  S
C1597      C1598   1.412       .  A
C1597      H1609   1.082       .  S
C1598      H1610   1.082       .  S
C1599      C1600   1.371       .  A
C1599      H1611   1.082       .  S
C1600      H1612   1.082       .  S
C1601      C1602   1.362       .  A
C1601      H1613   1.083       .  S
C1602      H1614   1.082       .  S
C1603      C2300   1.423       .  S
C1604      C2296   1.432       .  S
C1617      N1618   1.356   1_655  A
C1617      N1622   1.353       .  A
C1617      C2293   1.425       .  S
N1618      C1619   1.351       .  A
C1619      N1620   1.354   1_455  A
C1619      C2292   1.426       .  S
N1620      C1621   1.354       .  A
C1621      N1622   1.357       .  A
C1621      C2290   1.424       .  S
N1623      C1628   1.348       .  A
N1623      C1627   1.339       .  A
N1623      H1655   1.038       .  S
N1624      C1631   1.358       .  A
N1624      C1632   1.357       .  A
N1625      C1630   1.369       .  A
N1625      C1629   1.366       .  A
N1625      H1656   1.041       .  S
N1626      C1633   1.346       .  A
N1626      C1634   1.345       .  A
C1627      C1635   1.387       .  A
C1627      C1643   1.398       .  A
C1628      C1644   1.404       .  A
C1628      C1636   1.387       .  A
C1629      C1637   1.390       .  A
C1629      C1646   1.451       .  A
C1630      C1645   1.449       .  A
C1630      C1638   1.388       .  A
C1631      C1643   1.414       .  A
C1631      C1639   1.382       .  A
C1632      C1646   1.427       .  A
C1632      C1640   1.392       .  A
C1633      C1641   1.382       .  A
C1633      C1644   1.401       .  A
C1634      C1642   1.391       .  A
C1634      C1645   1.405       .  A
C1635      C1636   1.383       .  A
C1635      H1647   1.082       .  S
C1636      H1648   1.083       .  S
C1637      C1638   1.401       .  A
C1637      H1649   1.082       .  S
C1638      H1650   1.082       .  S
C1639      C1640   1.357       .  A
C1639      H1651   1.081       .  S
C1640      H1652   1.079       .  S
C1641      C1642   1.369       .  A
C1641      H1653   1.082       .  S
C1642      H1654   1.078       .  S
C1643      C2298   1.440       .  S
C1644      C2291   1.440       .  S
C1645      C1990   1.518       .  S
N1657      C1662   1.345       .  A
N1657      C1661   1.340       .  A
N1657      H1689   1.042       .  S
N1658      C1665   1.355       .  A
N1658      C1666   1.352       .  A
N1659      C1664   1.369       .  A
N1659      C1663   1.361       .  A
N1659      H1690   1.043       .  S
N1660      C1667   1.347       .  A
N1660      C1668   1.341       .  A
C1661      C1669   1.386       .  A
C1661      C1677   1.394       .  A
C1662      C1678   1.404       .  A
C1662      C1670   1.389       .  A
C1663      C1671   1.392       .  A
C1663      C1680   1.452       .  A
C1664      C1679   1.450       .  A
C1664      C1672   1.389       .  A
C1665      C1677   1.404       .  A
C1665      C1673   1.381       .  A
C1666      C1680   1.419       .  A
C1666      C1674   1.391       .  A
C1667      C1675   1.377       .  A
C1667      C1678   1.391       .  A
C1668      C1676   1.383       .  A
C1668      C1679   1.406       .  A
C1669      C1670   1.381       .  A
C1669      H1681   1.082       .  S
C1670      H1682   1.081       .  S
C1671      C1672   1.412       .  A
C1671      H1683   1.082       .  S
C1672      H1684   1.082       .  S
C1673      C1674   1.364       .  A
C1673      H1685   1.082       .  S
C1674      H1686   1.079       .  S
C1675      C1676   1.375       .  A
C1675      H1687   1.083       .  S
C1676      H1688   1.068       .  S
C1677      C2310   1.433       .  S
C1678      C2289   1.437       .  S
N1691      C1696   1.340       .  A
N1691      C1695   1.341       .  A
N1691      H1723   1.041       .  S
N1692      C1699   1.350       .  A
N1692      C1700   1.343       .  A
N1693      C1698   1.374       .  A
N1693      C1697   1.373       .  A
N1693      H1724   1.042       .  S
N1694      C1701   1.349       .  A
N1694      C1702   1.344       .  A
C1695      C1703   1.386       .  A
C1695      C1711   1.394       .  A
C1696      C1712   1.396       .  A
C1696      C1704   1.389       .  A
C1697      C1705   1.392       .  A
C1697      C1714   1.469       .  A
C1698      C1713   1.468       .  A
C1698      C1706   1.391       .  A
C1699      C1711   1.397       .  A
C1699      C1707   1.381       .  A
C1700      C1714   1.407       .  A
C1700      C1708   1.391       .  A
C1701      C1709   1.382       .  A
C1701      C1712   1.398       .  A
C1702      C1710   1.391       .  A
C1702      C1713   1.408       .  A
C1703      C1704   1.381       .  A
C1703      H1715   1.082       .  S
C1704      H1716   1.082       .  S
C1705      C1706   1.417       .  A
C1705      H1717   1.082       .  S
C1706      H1718   1.082       .  S
C1707      C1708   1.368       .  A
C1707      H1719   1.082       .  S
C1708      H1720   1.077       .  S
C1709      C1710   1.373       .  A
C1709      H1721   1.082       .  S
C1710      H1722   1.080       .  S
C1711      C2312   1.430       .  S
C1712      C2303   1.428       .  S
N1725      C1730   1.346       .  A
N1725      C1729   1.354       .  A
N1725      H1757   1.041       .  S
N1726      C1733   1.339       .  A
N1726      C1734   1.336       .  A
N1727      C1732   1.351       .  A
N1727      C1731   1.361       .  A
N1727      H1758   1.040       .  S
N1728      C1735   1.350       .  A
N1728      C1736   1.356       .  A
C1729      C1737   1.388       .  A
C1729      C1745   1.413       .  A
C1730      C1746   1.405       .  A
C1730      C1738   1.388       .  A
C1731      C1739   1.391       .  A
C1731      C1748   1.435       .  A
C1732      C1747   1.421       .  A
C1732      C1740   1.383       .  A
C1733      C1745   1.393       .  A
C1733      C1741   1.383       .  A
C1734      C1748   1.398       .  A
C1734      C1742   1.387       .  A
C1735      C1743   1.390       .  A
C1735      C1746   1.414       .  A
C1736      C1744   1.383       .  A
C1736      C1747   1.413       .  A
C1737      C1738   1.376       .  A
C1737      H1749   1.082       .  S
C1738      H1750   1.082       .  S
C1739      C1740   1.394       .  A
C1739      H1751   1.081   1_556  S
C1740      H1752   1.082       .  S
C1741      C1742   1.377       .  A
C1741      H1753   1.080   1_455  S
C1742      H1754   1.082       .  S
C1743      C1744   1.373       .  A
C1743      H1755   1.082       .  S
C1744      H1756   1.082       .  S
C1745      C2294   1.439       .  S
C1746      C2302   1.432       .  S
C1759      N1760   1.349       .  A
C1759      N1764   1.358       .  A
C1759      C2285   1.418       .  S
N1760      C1761   1.344       .  A
C1761      N1762   1.352       .  A
C1761      C2288   1.414       .  S
N1762      C1763   1.354       .  A
C1763      N1764   1.360       .  A
C1763      C2284   1.425       .  S
N1765      C1770   1.347       .  A
N1765      C1769   1.341       .  A
N1765      H1797   1.039       .  S
N1766      C1773   1.354       .  A
N1766      C1774   1.352       .  A
N1767      C1772   1.371       .  A
N1767      C1771   1.366       .  A
N1767      H1798   1.039       .  S
N1768      C1775   1.347       .  A
N1768      C1776   1.339       .  A
C1769      C1777   1.387       .  A
C1769      C1785   1.395       .  A
C1770      C1786   1.405       .  A
C1770      C1778   1.388       .  A
C1771      C1779   1.390       .  A
C1771      C1788   1.453       .  A
C1772      C1787   1.450       .  A
C1772      C1780   1.387       .  A
C1773      C1785   1.406       .  A
C1773      C1781   1.384       .  A
C1774      C1788   1.415       .  A
C1774      C1782   1.390       .  A
C1775      C1783   1.382       .  A
C1775      C1786   1.393       .  A
C1776      C1784   1.391       .  A
C1776      C1787   1.402       .  A
C1777      C1778   1.379       .  A
C1777      H1789   1.083       .  S
C1778      H1790   1.082       .  S
C1779      C1780   1.403       .  A
C1779      H1791   1.082       .  S
C1780      H1792   1.082       .  S
C1781      C1782   1.361       .  A
C1781      H1793   1.082       .  S
C1782      H1794   1.081       .  S
C1783      C1784   1.369       .  A
C1783      H1795   1.083       .  S
C1784      H1796   1.079       .  S
C1785      C2281   1.432       .  S
C1786      C2286   1.436       .  S
C1799      N1800   1.353       .  A
C1799      N1804   1.347       .  A
C1799      C2280   1.413       .  S
N1800      C1801   1.356       .  A
C1801      N1802   1.359       .  A
C1801      C2277   1.431       .  S
N1802      C1803   1.360       .  A
C1803      N1804   1.346       .  A
C1803      C2282   1.420       .  S
C1805      N1806   1.355       .  A
C1805      N1810   1.354   1_655  A
C1805      C2273   1.421       .  S
N1806      C1807   1.348       .  A
C1807      N1808   1.355       .  A
C1807      C2271   1.424       .  S
N1808      C1809   1.353   1_655  A
C1809      N1810   1.357       .  A
C1809      C2275   1.424       .  S
C1811      N1812   1.353       .  A
C1811      N1816   1.358       .  A
C1811      C2267   1.426       .  S
N1812      C1813   1.355       .  A
C1813      N1814   1.351       .  A
C1813      C2269   1.418   1_655  S
N1814      C1815   1.353       .  A
C1815      N1816   1.354       .  A
C1815      C2265   1.425       .  S
N1817      C1822   1.348       .  A
N1817      C1821   1.343       .  A
N1817      H1849   1.042       .  S
N1818      C1825   1.352       .  A
N1818      C1826   1.351       .  A
N1819      C1824   1.359       .  A
N1819      C1823   1.367       .  A
N1819      H1850   1.039       .  S
N1820      C1827   1.352       .  A
N1820      C1828   1.342       .  A
C1821      C1829   1.388       .  A
C1821      C1837   1.398       .  A
C1822      C1838   1.399       .  A
C1822      C1830   1.387       .  A
C1823      C1831   1.388       .  A
C1823      C1840   1.443       .  A
C1824      C1839   1.439       .  A
C1824      C1832   1.389       .  A
C1825      C1837   1.397       .  A
C1825      C1833   1.378       .  A
C1826      C1840   1.423       .  A
C1826      C1834   1.390       .  A
C1827      C1835   1.379       .  A
C1827      C1838   1.392       .  A
C1828      C1836   1.390       .  A
C1828      C1839   1.409       .  A
C1829      C1830   1.373       .  A
C1829      H1841   1.082       .  S
C1830      H1842   1.082       .  S
C1831      C1832   1.398       .  A
C1831      H1843   1.082       .  S
C1832      H1844   1.082       .  S
C1833      C1834   1.363       .  A
C1833      H1845   1.083       .  S
C1834      H1846   1.071       .  S
C1835      C1836   1.365       .  A
C1835      H1847   1.083       .  S
C1836      H1848   1.074       .  S
C1837      C2270   1.433       .  S
C1838      C2276   1.439       .  S
N1851      C1856   1.348       .  A
N1851      C1855   1.348       .  A
N1851      H1883   1.037       .  S
N1852      C1859   1.354       .  A
N1852      C1860   1.352       .  A
N1853      C1858   1.362       .  A
N1853      C1857   1.355       .  A
N1853      H1884   1.040       .  S
N1854      C1861   1.350       .  A
N1854      C1862   1.350       .  A
C1855      C1863   1.387       .  A
C1855      C1871   1.404       .  A
C1856      C1872   1.405       .  A
C1856      C1864   1.388       .  A
C1857      C1865   1.387       .  A
C1857      C1874   1.426       .  A
C1858      C1873   1.428       .  A
C1858      C1866   1.387       .  A
C1859      C1871   1.410       .  A
C1859      C1867   1.383       .  A
C1860      C1874   1.418       .  A
C1860      C1868   1.391       .  A
C1861      C1869   1.383       .  A
C1861      C1872   1.408       .  A
C1862      C1870   1.391       .  A
C1862      C1873   1.416       .  A
C1863      C1864   1.376       .  A
C1863      H1875   1.082       .  S
C1864      H1876   1.083       .  S
C1865      C1866   1.380       .  A
C1865      H1877   1.082       .  S
C1866      H1878   1.081       .  S
C1867      C1868   1.367       .  A
C1867      H1879   1.082       .  S
C1868      H1880   1.080       .  S
C1869      C1870   1.368       .  A
C1869      H1881   1.082       .  S
C1870      H1882   1.076       .  S
C1871      C2278   1.446       .  S
C1872      C2266   1.441       .  S
C1873      C2008   1.498       .  S
N1885      C1890   1.353       .  A
N1885      C1889   1.345       .  A
N1885      H1917   1.040       .  S
N1886      C1893   1.350       .  A
N1886      C1894   1.356       .  A
N1887      C1892   1.361       .  A
N1887      C1891   1.356       .  A
N1887      H1918   1.039       .  S
N1888      C1895   1.341       .  A
N1888      C1896   1.335       .  A
C1889      C1897   1.386       .  A
C1889      C1905   1.399       .  A
C1890      C1906   1.412       .  A
C1890      C1898   1.388       .  A
C1891      C1899   1.385       .  A
C1891      C1908   1.429       .  A
C1892      C1907   1.436       .  A
C1892      C1900   1.389       .  A
C1893      C1905   1.412       .  A
C1893      C1901   1.387       .  A
C1894      C1908   1.417       .  A
C1894      C1902   1.388       .  A
C1895      C1903   1.385       .  A
C1895      C1906   1.394       .  A
C1896      C1904   1.390       .  A
C1896      C1907   1.400       .  A
C1897      C1898   1.374       .  A
C1897      H1909   1.083       .  S
C1898      H1910   1.081       .  S
C1899      C1900   1.394       .  A
C1899      H1911   1.082       .  S
C1900      H1912   1.082   1_554  S
C1901      C1902   1.364       .  A
C1901      H1913   1.082       .  S
C1902      H1914   1.079       .  S
C1903      C1904   1.375       .  A
C1903      H1915   1.083   1_655  S
C1904      H1916   1.082       .  S
C1905      C2287   1.429       .  S
C1906      C2274   1.436       .  S
N1919      C1924   1.347       .  A
N1919      C1923   1.342       .  A
N1919      H1951   1.039       .  S
N1920      C1927   1.349       .  A
N1920      C1928   1.345       .  A
N1921      C1926   1.366       .  A
N1921      C1925   1.367       .  A
N1921      H1952   1.038       .  S
N1922      C1929   1.352       .  A
N1922      C1930   1.347       .  A
C1923      C1931   1.389       .  A
C1923      C1939   1.401       .  A
C1924      C1940   1.399       .  A
C1924      C1932   1.386       .  A
C1925      C1933   1.391       .  A
C1925      C1942   1.452       .  A
C1926      C1941   1.446       .  A
C1926      C1934   1.387       .  A
C1927      C1939   1.400       .  A
C1927      C1935   1.384       .  A
C1928      C1942   1.408       .  A
C1928      C1936   1.390       .  A
C1929      C1937   1.384       .  A
C1929      C1940   1.403       .  A
C1930      C1938   1.391       .  A
C1930      C1941   1.409       .  A
C1931      C1932   1.380       .  A
C1931      H1943   1.082       .  S
C1932      H1944   1.082       .  S
C1933      C1934   1.402       .  A
C1933      H1945   1.082       .  S
C1934      H1946   1.082       .  S
C1935      C1936   1.367       .  A
C1935      H1947   1.082       .  S
C1936      H1948   1.080       .  S
C1937      C1938   1.360       .  A
C1937      H1949   1.080       .  S
C1938      H1950   1.081       .  S
C1939      C2279   1.429       .  S
C1940      C2272   1.438       .  S
N1953      C1958   1.341       .  A
N1953      C1957   1.348       .  A
N1953      H1985   1.037       .  S
N1954      C1961   1.352       .  A
N1954      C1962   1.343       .  A
N1955      C1960   1.378       .  A
N1955      C1959   1.378       .  A
N1955      H1986   1.035       .  S
N1956      C1963   1.360       .  A
N1956      C1964   1.360       .  A
C1957      C1965   1.386       .  A
C1957      C1973   1.400       .  A
C1958      C1974   1.399       .  A
C1958      C1966   1.388       .  A
C1959      C1967   1.390       .  A
C1959      C1976   1.474       .  A
C1960      C1975   1.474       .  A
C1960      C1968   1.390       .  A
C1961      C1973   1.398       .  A
C1961      C1969   1.382       .  A
C1962      C1976   1.409       .  A
C1962      C1970   1.392       .  A
C1963      C1971   1.379       .  A
C1963      C1974   1.416       .  A
C1964      C1972   1.395       .  A
C1964      C1975   1.438       .  A
C1965      C1966   1.377       .  A
C1965      H1977   1.083       .  S
C1966      H1978   1.082       .  S
C1967      C1968   1.409       .  A
C1967      H1979   1.082   1_545  S
C1968      H1980   1.082   1_545  S
C1969      C1970   1.363       .  A
C1969      H1981   1.082       .  S
C1970      H1982   1.078       .  S
C1971      C1972   1.358       .  A
C1971      H1983   1.083   1_655  S
C1972      H1984   1.074       .  S
C1973      C2283   1.440       .  S
C1974      C2268   1.441       .  S
O1987     Ni1993   1.917       .  S
O1987      C2008   1.284       .  A
O1988     Ni2011   1.918   1_455  S
O1988      C1997   1.279       .  A
O1989     Ni1993   1.808       .  S
O1989     Ni2011   1.861       .  S
O1989     Ni2005   1.881       .  S
O1989      H2012   0.971       .  S
C1990      O2007   1.288       .  A
C1990      O1999   1.282       .  A
O1991     Ni2010   1.943       .  S
O1991      C1997   1.281       .  A
O1992     Ni2010   1.954       .  S
O1992      C1994   1.286       .  A
Ni1993     O1996   1.892       .  S
Ni1993     O1998   1.872       .  S
C1994      O2004   1.283       .  A
O1995     Ni2011   2.008       .  S
O1995      C2001   1.312       .  A
O1996      C2001   1.284       .  A
C1997      C2161   1.493       .  S
O1998      C2000   1.264       .  A
O1999     Ni2010   1.954       .  S
C2000      O2006   1.289       .  A
H2002      O2003   0.966       .  S
O2003     Ni2011   1.915   1_455  S
O2003     Ni2005   1.905   1_455  S
O2003     Ni2010   1.875       .  S
O2004     Ni2005   1.979   1_455  S
Ni2005     O2009   1.949       .  S
Ni2005     O2007   1.948   1_655  S
O2006     Ni2011   1.995       .  S
C2008      O2009   1.295       .  A
C2013      N2014   1.356   1_455  A
C2013      N2018   1.362       .  A
C2013      C2261   1.433   1_554  S
N2014      C2015   1.355       .  A
C2015      N2016   1.347   1_655  A
C2015      C2263   1.421       .  S
N2016      C2017   1.349       .  A
C2017      N2018   1.359       .  A
C2017      C2260   1.425       .  S
N2019      C2024   1.347       .  A
N2019      C2023   1.349       .  A
N2019      H2051   1.036       .  S
N2020      C2027   1.351       .  A
N2020      C2028   1.347       .  A
N2021      C2026   1.355       .  A
N2021      C2025   1.360       .  A
N2021      H2052   1.031       .  S
N2022      C2029   1.353       .  A
N2022      C2030   1.351       .  A
C2023      C2031   1.386       .  A
C2023      C2039   1.405       .  A
C2024      C2040   1.404       .  A
C2024      C2032   1.388       .  A
C2025      C2033   1.387       .  A
C2025      C2042   1.432       .  A
C2026      C2041   1.429       .  A
C2026      C2034   1.387       .  A
C2027      C2039   1.406       .  A
C2027      C2035   1.384       .  A
C2028      C2042   1.417       .  A
C2028      C2036   1.391       .  A
C2029      C2037   1.384       .  A
C2029      C2040   1.408       .  A
C2030      C2038   1.391       .  A
C2030      C2041   1.417       .  A
C2031      C2032   1.377       .  A
C2031      H2043   1.082       .  S
C2032      H2044   1.083       .  S
C2033      C2034   1.391       .  A
C2033      H2045   1.082       .  S
C2034      H2046   1.082       .  S
C2035      C2036   1.367       .  A
C2035      H2047   1.082       .  S
C2036      H2048   1.083       .  S
C2037      C2038   1.363       .  A
C2037      H2049   1.082       .  S
C2038      H2050   1.081       .  S
C2039      C2259   1.443       .  S
C2040      C2257   1.439       .  S
C2053      N2054   1.347       .  A
C2053      N2058   1.355       .  A
C2053      C2256   1.414   1_545  S
N2054      C2055   1.344       .  A
C2055      N2056   1.355       .  A
C2055      C2252   1.414       .  S
N2056      C2057   1.356   1_455  A
C2057      N2058   1.358   1_655  A
C2057      C2254   1.427       .  S
C2059      N2060   1.353       .  A
C2059      N2064   1.355       .  A
C2059      C2248   1.421       .  S
N2060      C2061   1.355       .  A
C2061      N2062   1.354       .  A
C2061      C2249   1.425       .  S
N2062      C2063   1.355       .  A
C2063      N2064   1.351       .  A
C2063      C2258   1.425       .  S
N2065      C2070   1.345       .  A
N2065      C2069   1.343       .  A
N2065      H2097   1.038       .  S
N2066      C2073   1.347       .  A
N2066      C2074   1.344       .  A
N2067      C2072   1.360       .  A
N2067      C2071   1.360       .  A
N2067      H2098   1.039       .  S
N2068      C2075   1.352       .  A
N2068      C2076   1.347       .  A
C2069      C2077   1.387       .  A
C2069      C2085   1.401       .  A
C2070      C2086   1.400       .  A
C2070      C2078   1.387       .  A
C2071      C2079   1.390       .  A
C2071      C2088   1.440       .  A
C2072      C2087   1.433       .  A
C2072      C2080   1.387       .  A
C2073      C2085   1.400       .  A
C2073      C2081   1.386       .  A
C2074      C2088   1.403       .  A
C2074      C2082   1.387       .  A
C2075      C2083   1.384       .  A
C2075      C2086   1.401       .  A
C2076      C2084   1.392       .  A
C2076      C2087   1.412       .  A
C2077      C2078   1.381       .  A
C2077      H2089   1.082       .  S
C2078      H2090   1.082       .  S
C2079      C2080   1.400       .  A
C2079      H2091   1.082       .  S
C2080      H2092   1.082       .  S
C2081      C2082   1.362       .  A
C2081      H2093   1.082       .  S
C2082      H2094   1.079       .  S
C2083      C2084   1.364       .  A
C2083      H2095   1.082       .  S
C2084      H2096   1.083       .  S
C2085      C2251   1.428       .  S
C2086      C2247   1.436       .  S
C2099      N2100   1.354       .  A
C2099      N2104   1.354   1_565  A
C2099      C2244   1.426       .  S
N2100      C2101   1.350   1_565  A
C2101      N2102   1.356       .  A
C2101      C2245   1.426   1_554  S
N2102      C2103   1.356       .  A
C2103      N2104   1.359       .  A
C2103      C2242   1.428       .  S
N2105      C2110   1.344       .  A
N2105      C2109   1.345       .  A
N2105      H2137   1.042       .  S
N2106      C2113   1.352       .  A
N2106      C2114   1.345       .  A
N2107      C2112   1.375       .  A
N2107      C2111   1.375       .  A
N2107      H2138   1.042       .  S
N2108      C2115   1.354       .  A
N2108      C2116   1.350       .  A
C2109      C2117   1.390       .  A
C2109      C2125   1.402       .  A
C2110      C2126   1.397       .  A
C2110      C2118   1.386       .  A
C2111      C2119   1.391       .  A
C2111      C2128   1.469       .  A
C2112      C2127   1.468       .  A
C2112      C2120   1.391       .  A
C2113      C2125   1.397       .  A
C2113      C2121   1.379   1_554  A
C2114      C2128   1.411       .  A
C2114      C2122   1.390       .  A
C2115      C2123   1.379       .  A
C2115      C2126   1.397       .  A
C2116      C2124   1.386       .  A
C2116      C2127   1.415       .  A
C2117      C2118   1.379       .  A
C2117      H2129   1.082       .  S
C2118      H2130   1.082       .  S
C2119      C2120   1.414       .  A
C2119      H2131   1.082       .  S
C2120      H2132   1.082       .  S
C2121      C2122   1.372   1_556  A
C2121      H2133   1.083       .  S
C2122      H2134   1.076   1_554  S
C2123      C2124   1.366       .  A
C2123      H2135   1.083       .  S
C2124      H2136   1.071       .  S
C2125      C2241   1.439       .  S
C2126      C2250   1.437       .  S
N2139      C2144   1.354       .  A
N2139      C2143   1.352       .  A
N2139      H2171   1.032       .  S
N2140      C2147   1.353       .  A
N2140      C2148   1.352       .  A
N2141      C2146   1.361       .  A
N2141      C2145   1.361       .  A
N2141      H2172   1.028       .  S
N2142      C2149   1.350       .  A
N2142      C2150   1.350       .  A
C2143      C2151   1.389       .  A
C2143      C2159   1.416       .  A
C2144      C2160   1.414       .  A
C2144      C2152   1.386       .  A
C2145      C2153   1.387       .  A
C2145      C2162   1.436       .  A
C2146      C2161   1.439       .  A
C2146      C2154   1.389       .  A
C2147      C2159   1.413       .  A
C2147      C2155   1.387       .  A
C2148      C2162   1.421       .  A
C2148      C2156   1.387       .  A
C2149      C2157   1.385       .  A
C2149      C2160   1.409       .  A
C2150      C2158   1.391       .  A
C2150      C2161   1.419       .  A
C2151      C2152   1.371       .  A
C2151      H2163   1.082   1_556  S
C2152      H2164   1.082   1_556  S
C2153      C2154   1.388       .  A
C2153      H2165   1.082       .  S
C2154      H2166   1.082       .  S
C2155      C2156   1.362       .  A
C2155      H2167   1.083   1_545  S
C2156      H2168   1.080       .  S
C2157      C2158   1.366       .  A
C2157      H2169   1.083   1_455  S
C2158      H2170   1.081       .  S
C2159      C2246   1.444       .  S
C2160      C2262   1.448       .  S
N2173      C2178   1.349       .  A
N2173      C2177   1.346       .  A
N2173      H2205   1.036       .  S
N2174      C2181   1.348       .  A
N2174      C2182   1.345       .  A
N2175      C2180   1.360       .  A
N2175      C2179   1.369       .  A
N2175      H2206   1.035       .  S
N2176      C2183   1.356       .  A
N2176      C2184   1.354       .  A
C2177      C2185   1.388       .  A
C2177      C2193   1.406       .  A
C2178      C2194   1.405       .  A
C2178      C2186   1.388       .  A
C2179      C2187   1.387       .  A
C2179      C2196   1.446       .  A
C2180      C2195   1.446       .  A
C2180      C2188   1.389       .  A
C2181      C2193   1.401       .  A
C2181      C2189   1.385       .  A
C2182      C2196   1.411       .  A
C2182      C2190   1.389       .  A
C2183      C2191   1.383       .  A
C2183      C2194   1.410       .  A
C2184      C2192   1.391       .  A
C2184      C2195   1.422       .  A
C2185      C2186   1.378       .  A
C2185      H2197   1.082       .  S
C2186      H2198   1.083       .  S
C2187      C2188   1.399       .  A
C2187      H2199   1.082       .  S
C2188      H2200   1.082       .  S
C2189      C2190   1.367       .  A
C2189      H2201   1.083       .  S
C2190      H2202   1.078       .  S
C2191      C2192   1.360       .  A
C2191      H2203   1.081       .  S
C2192      H2204   1.080       .  S
C2193      C2255   1.433       .  S
C2194      C2243   1.443       .  S
N2207      C2212   1.343       .  A
N2207      C2211   1.344       .  A
N2207      H2239   1.042       .  S
N2208      C2215   1.353       .  A
N2208      C2216   1.348       .  A
N2209      C2214   1.374       .  A
N2209      C2213   1.371       .  A
N2209      H2240   1.042       .  S
N2210      C2217   1.350       .  A
N2210      C2218   1.345       .  A
C2211      C2219   1.386       .  A
C2211      C2227   1.396       .  A
C2212      C2228   1.400       .  A
C2212      C2220   1.390       .  A
C2213      C2221   1.393       .  A
C2213      C2230   1.466       .  A
C2214      C2229   1.462       .  A
C2214      C2222   1.388       .  A
C2215      C2227   1.396       .  A
C2215      C2223   1.375       .  A
C2216      C2230   1.422       .  A
C2216      C2224   1.391       .  A
C2217      C2225   1.379       .  A
C2217      C2228   1.392       .  A
C2218      C2226   1.380       .  A
C2218      C2229   1.406       .  A
C2219      C2220   1.377       .  A
C2219      H2231   1.082       .  S
C2220      H2232   1.082       .  S
C2221      C2222   1.411       .  A
C2221      H2233   1.081       .  S
C2222      H2234   1.082       .  S
C2223      C2224   1.370       .  A
C2223      H2235   1.083       .  S
C2224      H2236   1.075       .  S
C2225      C2226   1.371       .  A
C2225      H2237   1.083       .  S
C2226      H2238   1.068       .  S
C2227      C2253   1.439       .  S
C2228      C2264   1.433       .  S
C2241      C2242   1.202       .  T
C2243      C2244   1.200       .  T
C2245      C2246   1.200       .  T
C2247      C2248   1.198       .  T
C2249      C2250   1.199       .  T
C2251      C2252   1.194       .  T
C2253      C2254   1.201       .  T
C2255      C2256   1.195       .  T
C2257      C2258   1.200       .  T
C2259      C2260   1.201       .  T
C2261      C2262   1.205       .  T
C2263      C2264   1.198       .  T
C2265      C2266   1.200       .  T
C2267      C2268   1.200       .  T
C2269      C2270   1.196       .  T
C2271      C2272   1.199       .  T
C2273      C2274   1.198       .  T
C2275      C2276   1.200       .  T
C2277      C2278   1.204       .  T
C2279      C2280   1.193       .  T
C2281      C2282   1.197       .  T
C2283      C2284   1.200       .  T
C2285      C2286   1.197       .  T
C2287      C2288   1.192       .  T
C2289      C2290   1.200       .  T
C2291      C2292   1.201       .  T
C2293      C2294   1.200   1_655  T
C2295      C2296   1.195       .  T
C2297      C2298   1.200       .  T
C2299      C2300   1.190       .  T
C2301      C2302   1.194       .  T
C2303      C2304   1.195       .  T
C2305      C2306   1.205       .  T
C2307      C2308   1.197       .  T
C2309      C2310   1.196       .  T
C2311      C2312   1.195       .  T
C2313      C2314   1.197       .  T
C2315      C2316   1.198       .  T
C2317      C2318   1.197       .  T
C2319      C2320   1.197       .  T
C2321      C2322   1.201       .  T
C2323      C2324   1.197       .  T
C2325      C2326   1.199       .  T
C2327      C2328   1.192       .  T
C2329      C2330   1.196       .  T
C2331      C2332   1.195       .  T
C2333      C2334   1.198       .  T
C2335      C2336   1.197       .  T
C2337      C2338   1.196       .  T
C2339      C2340   1.197       .  T
C2341      C2342   1.196       .  T
C2343      C2344   1.199       .  T
C2345      C2346   1.201       .  T
C2347      C2348   1.196       .  T
C2349      C2350   1.195       .  T
C2351      C2352   1.204   1_554  T
C2353      C2354   1.196       .  T
C2355      C2356   1.199       .  T
C2357      C2358   1.200       .  T
C2359      C2360   1.202       .  T
C2361      C2362   1.199       .  T
C2363      C2364   1.201       .  T
C2365      C2366   1.203       .  T
C2367      C2368   1.201       .  T
C2369      C2370   1.199       .  T
C2371      C2372   1.198       .  T
C2373      C2374   1.194       .  T
C2375      C2376   1.194       .  T
C2377      C2378   1.197       .  T
C2379      C2380   1.200       .  T
C2381      C2382   1.196       .  T
C2383      C2384   1.192       .  T
C2385      C2386   1.201       .  T
C2387      C2388   1.196       .  T
C2389      C2390   1.194       .  T
C2391      C2392   1.196       .  T
C2393      C2394   1.202       .  T
C2395      C2396   1.199       .  T
C2397      C2398   1.197       .  T
C2399      C2400   1.200   1_565  T
C2401      C2402   1.196       .  T
C2403      C2404   1.197       .  T
C2405      C2406   1.202       .  T
C2407      C2408   1.199       .  T
C2409      C2410   1.201       .  T
C2411      C2412   1.200       .  T
C2413      C2414   1.194       .  T
C2415      C2416   1.199       .  T
C2417      C2418   1.203       .  T
C2419      C2420   1.198       .  T
C2421      C2422   1.202       .  T
C2423      C2424   1.198       .  T
C2425      C2426   1.201       .  T
C2427      C2428   1.199       .  T
C2429      C2430   1.194       .  T
C2431      C2432   1.194       .  T
