geometry optimzed in LAMMPS
_audit_creation_date              2020-11-30 
_audit_creation_method            'lammps2cif' 
_symmetry_space_group_name_H-M    'P1' 
_symmetry_Int_Tables_number       1 
_symmetry_cell_setting            triclinic 
loop_ 
_symmetry_equiv_pos_as_xyz 
  x,y,z 
_cell_length_a                    62.67745189 
_cell_length_b                    62.31414978855117 
_cell_length_c                    113.18051435448967 
_cell_angle_alpha                 89.89165868381684 
_cell_angle_beta                  90.0028291624237 
_cell_angle_gamma                 89.97189180373236 
loop_ 
_atom_site_label 
_atom_site_type_symbol 
_atom_site_fract_x 
_atom_site_fract_y 
_atom_site_fract_z 
_atom_site_charge 
N1          N  0.71188866  0.05694640  0.30983744    -0.25900
N2          N  0.70400879  0.06268588  0.29949093    -0.33700
C3          C  0.68532973  0.07270303  0.30109481     0.02500
C4          C  0.68106507  0.07337475  0.31306572     0.08500
C5          C  0.69833727  0.06331332  0.31840121    -0.04600
H6          H  0.67574862  0.07932837  0.29403331     0.09200
H7          H  0.70077580  0.06063093  0.32774051     0.10400
Cu8        Cu  0.71871842  0.05681847  0.28358015     0.44200
Cu9        Cu  0.74075996  0.04078946  0.31109143     0.42000
Cu10       Cu  0.76806292  0.02829881  0.28264391     0.43900
N11         N  0.73398919  0.04902103  0.26808448    -0.33300
N12         N  0.75222890  0.03850527  0.26752409    -0.27500
C13         C  0.75726202  0.03537652  0.25608059    -0.03600
C14         C  0.74129653  0.04438428  0.24911684     0.08600
C15         C  0.72683287  0.05279031  0.25712523     0.02400
H16         H  0.77139925  0.02703025  0.25312146     0.10100
H17         H  0.71167271  0.06031131  0.25522536     0.09100
N18         N  0.77951571  0.02040150  0.29933080    -0.34700
N19         N  0.76977334  0.02496306  0.30939884    -0.26900
C20         C  0.78164241  0.01758880  0.31840393    -0.02100
C21         C  0.79968716  0.00777420  0.31387014     0.06500
C22         C  0.79781148  0.00996630  0.30173104     0.04600
H23         H  0.77749283  0.01958816  0.32762949     0.09700
H24         H  0.80879121  0.00414391  0.29505249     0.08500
N25         N  0.00497177  0.97828439  0.39565845    -0.25900
N26         N  0.00910650  0.97008213  0.40619774    -0.33700
C27         C  0.02871312  0.97621639  0.40960002     0.02500
C28         C  0.03740095  0.98906680  0.40085013     0.08500
C29         C  0.02185216  0.99007769  0.39213752    -0.04600
H30         H  0.03574627  0.97232860  0.41805060     0.09200
H31         H  0.02267711  0.99879226  0.38389384     0.10400
Cu32       Cu  0.98742072  0.95269072  0.41620238     0.44200
Cu33       Cu  0.97624461  0.97337451  0.38677532     0.42000
Cu34       Cu  0.93638485  0.94274450  0.40306463     0.43900
N35         N  0.96218335  0.93884972  0.42528126    -0.33300
N36         N  0.94342086  0.93506289  0.42040209    -0.27500
C37         C  0.93017202  0.92694867  0.42861451    -0.03600
C38         C  0.94108365  0.92569883  0.43922705     0.08600
C39         C  0.96136367  0.93335611  0.43676480     0.02400
H40         H  0.91361468  0.92295867  0.42704691     0.10100
H41         H  0.97454407  0.93494388  0.44286910     0.09100
N42         N  0.93192510  0.95418448  0.38608964    -0.34700
N43         N  0.94616139  0.96561034  0.38018647    -0.26900
C44         C  0.93757188  0.97165890  0.36980103    -0.02100
C45         C  0.91696120  0.96362367  0.36914411     0.06500
C46         C  0.91400375  0.95259303  0.37963210     0.04600
H47         H  0.94565505  0.98143961  0.36330065     0.09700
H48         H  0.89955091  0.94481724  0.38262073     0.08500
N49         N  0.49121959  0.66606304  0.88103005    -0.25900
N50         N  0.48243940  0.68092951  0.88777191    -0.33700
C51         C  0.46174285  0.67618476  0.88938169     0.02500
C52         C  0.45727500  0.65732277  0.88344159     0.08500
C53         C  0.47634688  0.65143616  0.87818204    -0.04600
H54         H  0.45129143  0.68469524  0.89535161     0.09200
H55         H  0.47956006  0.63694859  0.87326755     0.10400
Cu56       Cu  0.49959752  0.70433945  0.89653498     0.44200
Cu57       Cu  0.52353680  0.66446750  0.87745540     0.42000
Cu58       Cu  0.55635188  0.70423502  0.89225150     0.43900
N59         N  0.52040901  0.72208309  0.90678363    -0.33300
N60         N  0.54131131  0.72205670  0.90529385    -0.27500
C61         C  0.55045234  0.73254893  0.91436109    -0.03600
C62         C  0.53452250  0.73932552  0.92198518     0.08600
C63         C  0.51567981  0.73249186  0.91682805     0.02400
H64         H  0.56748444  0.73350249  0.91582296     0.10100
H65         H  0.49977293  0.73376468  0.92046409     0.09100
N66         N  0.56791720  0.68213082  0.88013957    -0.34700
N67         N  0.55613885  0.66720269  0.87505374    -0.26900
C68         C  0.56865472  0.65500300  0.86813680    -0.02100
C69         C  0.58940485  0.66267719  0.86880981     0.06500
C70         C  0.58819669  0.67996386  0.87650281     0.04600
H71         H  0.56297529  0.64138922  0.86314868     0.09700
H72         H  0.60099877  0.69047468  0.87921374     0.08500
N73         N  0.81533180  0.56967392  0.82555677    -0.25900
N74         N  0.82510861  0.56697035  0.81532380    -0.33700
C75         C  0.84394628  0.55735669  0.81714139     0.02500
C76         C  0.84629627  0.55360961  0.82909876     0.08500
C77         C  0.82775660  0.56150600  0.83421843    -0.04600
H78         H  0.85473215  0.55257235  0.81017903     0.09200
H79         H  0.82353145  0.56114477  0.84346814     0.10400
Cu80       Cu  0.81218451  0.57414889  0.79903672     0.44200
Cu81       Cu  0.78519566  0.58366998  0.82664939     0.42000
Cu82       Cu  0.76026641  0.59608834  0.79760285     0.43900
N83         N  0.79679348  0.57981910  0.78323366    -0.33300
N84         N  0.77749788  0.58819993  0.78255934    -0.27500
C85         C  0.77188603  0.58980204  0.77110139    -0.03600
C86         C  0.78847821  0.58184110  0.76425547     0.08600
C87         C  0.80398862  0.57571818  0.77229893     0.02400
H88         H  0.75673456  0.59596313  0.76802084     0.10100
H89         H  0.81954579  0.56907104  0.77037384     0.09100
N90         N  0.74611779  0.60119838  0.81395582    -0.34700
N91         N  0.75492572  0.59692260  0.82432746    -0.26900
C92         C  0.74097034  0.60203009  0.83291489    -0.02100
C93         C  0.72245975  0.60984253  0.82772781     0.06500
C94         C  0.72639121  0.60903227  0.81569461     0.04600
H95         H  0.74421183  0.60030503  0.84224197     0.09700
H96         H  0.71557112  0.61334542  0.80864221     0.08500
N97         N  0.89356553  0.54389314  0.63127666    -0.25900
N98         N  0.88497481  0.53524684  0.64080997    -0.33700
C99         C  0.89424901  0.51624895  0.64294753     0.02500
C100        C  0.90947681  0.51251264  0.63432914     0.08500
C101        C  0.90862845  0.53048962  0.62706218    -0.02200
H102        H  0.89085372  0.50643654  0.65060723     0.09200
H103        H  0.91847085  0.53383802  0.61942639     0.10400
Cu104      Cu  0.86283754  0.55035101  0.65141544     0.44200
Cu105      Cu  0.88555165  0.57452828  0.62554756     0.42000
Cu106      Cu  0.85307947  0.60620650  0.64643898     0.43900
N107        N  0.84447865  0.56882977  0.66258882    -0.33300
N108        N  0.84122475  0.58958742  0.66104675    -0.27500
C109        C  0.83032677  0.59720108  0.67040765    -0.03600
C110        C  0.82650222  0.58033868  0.67817685     0.08600
C111        C  0.83572516  0.56262762  0.67287296     0.02400
H112        H  0.82584807  0.61383254  0.67154640     0.10100
H113        H  0.83700783  0.54661780  0.67649738     0.09100
N114        N  0.86676609  0.61826744  0.63098037    -0.34700
N115        N  0.87788019  0.60671815  0.62334203    -0.26900
C116        C  0.88466986  0.61955195  0.61453958    -0.02100
C117        C  0.87769699  0.64023608  0.61675072     0.06500
C118        C  0.86637114  0.63878554  0.62724795     0.04600
H119        H  0.89473432  0.61434969  0.60734783     0.09700
H120        H  0.85853409  0.65170264  0.63189729     0.08500
N121        N  0.94462603  0.87404467  0.57850235    -0.25900
N122        N  0.93949378  0.88938010  0.57094650    -0.33700
C123        C  0.95047297  0.90723257  0.57359367     0.02500
C124        C  0.96331755  0.90294132  0.58323890     0.08500
C125        C  0.95929718  0.88168650  0.58610898    -0.04600
H126        H  0.95023045  0.92179305  0.56838164     0.09200
H127        H  0.96690265  0.87231504  0.59297015     0.10400
Cu128      Cu  0.92114831  0.88419336  0.55607097     0.44200
Cu129      Cu  0.93218944  0.84323635  0.57725083     0.42000
Cu130      Cu  0.90468952  0.82991976  0.54961188     0.43900
N131        N  0.91029226  0.87438310  0.53972407    -0.33300
N132        N  0.90527757  0.85436071  0.53707327    -0.27500
C133        C  0.90224429  0.85292765  0.52531132    -0.03600
C134        C  0.90526407  0.87311040  0.52041327     0.08600
C135        C  0.91031388  0.88625103  0.52981845     0.02400
H136        H  0.89875048  0.83820908  0.52065042     0.10100
H137        H  0.91512658  0.90289832  0.52938885     0.09100
N138        N  0.90750808  0.80908237  0.56391163    -0.34700
N139        N  0.91768797  0.81391916  0.57379544    -0.26900
C140        C  0.91755804  0.79672140  0.58097265    -0.02100
C141        C  0.90683889  0.78018051  0.57537598     0.06500
C142        C  0.90054315  0.78866668  0.56459710     0.04600
H143        H  0.92482495  0.79631718  0.58962692     0.09700
H144        H  0.89217368  0.78042455  0.55759866     0.08500
N145        N  0.53485686  0.75660750  0.06908322    -0.25900
N146        N  0.53155963  0.74624731  0.05909087    -0.33700
C147        C  0.52053868  0.72827055  0.06128368     0.02500
C148        C  0.51671648  0.72687372  0.07331113     0.08500
C149        C  0.52600127  0.74528384  0.07799335    -0.04600
H150        H  0.51513950  0.71742857  0.05447493     0.09200
H151        H  0.52633206  0.75015161  0.08715535     0.10400
Cu152      Cu  0.54128731  0.75685519  0.04271327     0.44200
Cu153      Cu  0.55045949  0.78610286  0.06943122     0.42000
Cu154      Cu  0.56707849  0.80727033  0.04006963     0.43900
N155        N  0.55054864  0.76957428  0.02671064    -0.33300
N156        N  0.55998757  0.78838401  0.02556390    -0.27500
C157        C  0.56321931  0.79235492  0.01399866    -0.03600
C158        C  0.55551982  0.77503760  0.00760602     0.08600
C159        C  0.54756779  0.76097092  0.01598964     0.02400
H160        H  0.57068181  0.80668836  0.01054092     0.10100
H161        H  0.53968330  0.74581721  0.01442954     0.09100
N162        N  0.57066569  0.82324153  0.05598229    -0.34700
N163        N  0.56482159  0.81577877  0.06644890    -0.26900
C164        C  0.56886967  0.83081820  0.07465355    -0.02100
C165        C  0.57758858  0.84863999  0.06910582     0.06500
C166        C  0.57851139  0.84316285  0.05727067     0.04600
H167        H  0.56565356  0.82883172  0.08396114     0.09700
H168        H  0.58382558  0.85311690  0.05002203     0.08500
N169        N  0.60955425  0.07990444  0.12707736    -0.25900
N170        N  0.62062562  0.08847180  0.13580437    -0.33700
C171        C  0.61176176  0.10732712  0.13879676     0.02500
C172        C  0.59415153  0.11081353  0.13164885     0.08500
C173        C  0.59327750  0.09306304  0.12429833    -0.04600
H174        H  0.61696790  0.11707837  0.14613411     0.09200
H175        H  0.58133034  0.08957185  0.11768838     0.10400
Cu176      Cu  0.64549904  0.07293153  0.14430780     0.44200
Cu177      Cu  0.61578460  0.04962514  0.12040035     0.42000
Cu178      Cu  0.65760490  0.01893930  0.13548414     0.43900
N179        N  0.66769097  0.05369271  0.15279963    -0.33300
N180        N  0.67190922  0.03367378  0.14977367    -0.27500
C181        C  0.68580450  0.02521946  0.15757639    -0.03600
C182        C  0.69072562  0.04083094  0.16583094     0.08600
C183        C  0.67890277  0.05861957  0.16252067     0.02400
H184        H  0.69167937  0.00890967  0.15730562     0.10100
H185        H  0.67781603  0.07375784  0.16712253     0.09100
N186        N  0.63923914  0.00735601  0.12174041    -0.34700
N187        N  0.62389818  0.01823505  0.11640636    -0.26900
C188        C  0.61400744  0.00526403  0.10867374    -0.02100
C189        C  0.62359195  0.98521948  0.10914430     0.06500
C190        C  0.63963452  0.98727085  0.11748731     0.04600
H191        H  0.60024145  0.00988974  0.10353150     0.09700
H192        H  0.65062331  0.97504928  0.12046218     0.08500
N193        N  0.30534808  0.55195815  0.91729655    -0.25900
N194        N  0.31254812  0.55789443  0.92774429    -0.33700
C195        C  0.32971182  0.57049893  0.92631914     0.02500
C196        C  0.33359235  0.57265447  0.91433741     0.08500
C197        C  0.31776883  0.56068019  0.90887646    -0.04600
H198        H  0.33857626  0.57759946  0.93350972     0.09200
H199        H  0.31570288  0.55803914  0.89951424     0.10400
Cu200      Cu  0.29924636  0.54777789  0.94337966     0.44200
Cu201      Cu  0.27931272  0.53176925  0.91533735     0.42000
Cu202      Cu  0.25740626  0.50801816  0.94257612     0.43900
N203        N  0.28613405  0.53404024  0.95820902    -0.33300
N204        N  0.27139675  0.51887508  0.95817367    -0.27500
C205        C  0.26749150  0.51291939  0.96944102    -0.03600
C206        C  0.28023354  0.52525264  0.97679172     0.08600
C207        C  0.29181064  0.53835462  0.96935683     0.02400
H208        H  0.25612569  0.50075947  0.97207514     0.10100
H209        H  0.30388592  0.54989091  0.97185007     0.09100
N210        N  0.24551608  0.50245110  0.92563571    -0.34700
N211        N  0.25330095  0.51120243  0.91589172    -0.26900
C212        C  0.24124856  0.50520042  0.90664064    -0.02100
C213        C  0.22499712  0.49200071  0.91068060     0.06500
C214        C  0.22832571  0.49060532  0.92279218     0.04600
H215        H  0.24372146  0.51078775  0.89770122     0.09700
H216        H  0.21887384  0.48180611  0.92915052     0.08500
N217        N  0.00160279  0.44360251  0.84825981    -0.25900
N218        N  0.99316733  0.43098920  0.84015491    -0.33700
C219        C  0.97295415  0.43708350  0.83811330     0.02500
C220        C  0.96832946  0.45456104  0.84521857     0.08500
C221        C  0.98688789  0.45814474  0.85162044    -0.04600
H222        H  0.96280055  0.42996564  0.83147208     0.09200
H223        H  0.98998406  0.47127971  0.85759037     0.10400
Cu224      Cu  0.01065423  0.40899978  0.83052671     0.44200
Cu225      Cu  0.03369467  0.44181156  0.85275483     0.42000
Cu226      Cu  0.06820964  0.41185583  0.83221134     0.43900
N227        N  0.03076977  0.39351213  0.81885277    -0.33300
N228        N  0.05175454  0.39531905  0.81895912    -0.27500
C229        C  0.05962165  0.38542930  0.80931641    -0.03600
C230        C  0.04275547  0.37683920  0.80282343     0.08600
C231        C  0.02474969  0.38230504  0.80929913     0.02400
H232        H  0.07634200  0.38539571  0.80699663     0.10100
H233        H  0.00828435  0.37891114  0.80721521     0.09100
N234        N  0.07912792  0.42795388  0.84726759    -0.34700
N235        N  0.06648592  0.43826066  0.85470499    -0.26900
C236        C  0.07831153  0.44654694  0.86348388    -0.02100
C237        C  0.09957028  0.44147823  0.86153995     0.06500
C238        C  0.09940322  0.42957822  0.85115385     0.04600
H239        H  0.07173118  0.45551699  0.87078377     0.09700
H240        H  0.11302662  0.42293843  0.84658483     0.08500
N241        N  0.40499901  0.57631482  0.10153130    -0.25900
N242        N  0.39361211  0.58535529  0.09305837    -0.33700
C243        C  0.40153435  0.60491642  0.09071535     0.02500
C244        C  0.41879504  0.60863151  0.09809507     0.08500
C245        C  0.42048071  0.59003450  0.10485126    -0.04600
H246        H  0.39576845  0.61515144  0.08368789     0.09200
H247        H  0.43226903  0.58648127  0.11155126     0.10400
Cu248      Cu  0.36909078  0.57014767  0.08417548     0.44200
Cu249      Cu  0.39956939  0.54504530  0.10736586     0.42000
Cu250      Cu  0.35448974  0.51723367  0.09348411     0.43900
N251        N  0.34811611  0.55083532  0.07494616    -0.33300
N252        N  0.34248980  0.53138822  0.07838634    -0.27500
C253        C  0.33116594  0.52197567  0.06972821    -0.03600
C254        C  0.32981160  0.53615899  0.06032549     0.08600
C255        C  0.34057402  0.55435605  0.06402049     0.02400
H256        H  0.32583021  0.50547584  0.06991629     0.10100
H257        H  0.34362399  0.56875394  0.05894804     0.09100
N258        N  0.37390765  0.50387855  0.10627769    -0.34700
N259        N  0.39054178  0.51355150  0.11109259    -0.26900
C260        C  0.40031622  0.49968143  0.11844739    -0.02100
C261        C  0.38926318  0.48039502  0.11827384     0.06500
C262        C  0.37263663  0.48371789  0.11043539     0.04600
H263        H  0.41430124  0.50347878  0.12361388     0.09700
H264        H  0.36079487  0.47218193  0.10766047     0.08500
N265        N  0.47088580  0.25267381  0.16187045    -0.25900
N266        N  0.47121090  0.24063216  0.17146626    -0.33700
C267        C  0.48296912  0.22306530  0.16945677     0.02500
C268        C  0.49029927  0.22367506  0.15791461     0.08500
C269        C  0.48237618  0.24286530  0.15337699    -0.04600
H270        H  0.48616736  0.21097834  0.17607677     0.09200
H271        H  0.48450256  0.24915801  0.14454902     0.10400
Cu272      Cu  0.45573435  0.24814318  0.18695160     0.44200
Cu273      Cu  0.45488509  0.28189840  0.16145026     0.42000
Cu274      Cu  0.42949456  0.29873301  0.18963453     0.43900
N275        N  0.44179458  0.25834268  0.20241435    -0.33300
N276        N  0.43253342  0.27723076  0.20368946    -0.27500
C277        C  0.42734543  0.27981934  0.21516245    -0.03600
C278        C  0.43359159  0.26155653  0.22133430     0.08600
C279        C  0.44263051  0.24833709  0.21290851     0.02400
H280        H  0.42015241  0.29414257  0.21877262     0.10100
H281        H  0.45052277  0.23314464  0.21440338     0.09100
N282        N  0.42975259  0.31683108  0.17409072    -0.34700
N283        N  0.43859122  0.31060574  0.16403370    -0.26900
C284        C  0.43577640  0.32604698  0.15586795    -0.02100
C285        C  0.42474140  0.34288047  0.16097976     0.06500
C286        C  0.42123374  0.33649529  0.17255326     0.04600
H287        H  0.44173825  0.32522654  0.14692403     0.09700
H288        H  0.41292810  0.34537129  0.17933748     0.08500
N289        N  0.02284023  0.35973405  0.65683466    -0.25900
N290        N  0.02196812  0.37074540  0.66678743    -0.33700
C291        C  0.01233548  0.38963085  0.66477872     0.02500
C292        C  0.00677353  0.39072368  0.65297240     0.08500
C293        C  0.01355574  0.37138151  0.64818856    -0.04600
H294        H  0.00927088  0.40153956  0.67150717     0.09200
H295        H  0.01213381  0.36628307  0.63909639     0.10400
Cu296      Cu  0.03365719  0.35995996  0.68278914     0.44200
Cu297      Cu  0.03749717  0.32977142  0.65584355     0.42000
Cu298      Cu  0.06352155  0.31157820  0.68355646     0.43900
N299        N  0.04599444  0.34719028  0.69818818    -0.33300
N300        N  0.05709921  0.32920955  0.69861561    -0.27500
C301        C  0.06196077  0.32479770  0.70996064    -0.03600
C302        C  0.05355412  0.34095401  0.71697947     0.08600
C303        C  0.04353930  0.35481331  0.70917592     0.02400
H304        H  0.07080374  0.31084459  0.71285291     0.10100
H305        H  0.03448152  0.36903238  0.71133533     0.09100
N306        N  0.06487112  0.29558666  0.66755998    -0.34700
N307        N  0.05516571  0.30161756  0.65771575    -0.26900
C308        C  0.05881166  0.28676617  0.64933619    -0.02100
C309        C  0.07144943  0.27064194  0.65411634     0.06500
C310        C  0.07498379  0.27691120  0.66567902     0.04600
H311        H  0.05232246  0.28751573  0.64049967     0.09700
H312        H  0.08429526  0.26862876  0.67231120     0.08500
N313        N  0.10112449  0.03603821  0.60310271    -0.25900
N314        N  0.11228418  0.02484063  0.59536839    -0.33700
C315        C  0.10146529  0.00690377  0.59268726     0.02500
C316        C  0.08227565  0.00690939  0.59883774     0.08500
C317        C  0.08277327  0.02567836  0.60541226    -0.04600
H318        H  0.10702621  0.99517876  0.58640112     0.09200
H319        H  0.07025533  0.03211033  0.61091353     0.10400
Cu320      Cu  0.13955788  0.03598670  0.58691933     0.44200
Cu321      Cu  0.10978517  0.06612662  0.60905379     0.42000
Cu322      Cu  0.14981895  0.09231481  0.59155437     0.43900
N323        N  0.16178370  0.05338186  0.57721601    -0.33300
N324        N  0.16503261  0.07409877  0.57885082    -0.27500
C325        C  0.17872052  0.08132104  0.57065130    -0.03600
C326        C  0.18460218  0.06436967  0.56343830     0.08600
C327        C  0.17345539  0.04684934  0.56789735     0.02400
H328        H  0.18316022  0.09799598  0.56970081     0.10100
H329        H  0.17338367  0.03064118  0.56451391     0.09100
N330        N  0.13272758  0.10764813  0.60467083    -0.34700
N331        N  0.11845655  0.09781770  0.61132824    -0.26900
C332        C  0.10938088  0.11218446  0.61858247    -0.02100
C333        C  0.11817506  0.13218200  0.61629882     0.06500
C334        C  0.13304173  0.12860591  0.60744820     0.04600
H335        H  0.09693010  0.10831649  0.62483127     0.09700
H336        H  0.14265394  0.14044702  0.60292967     0.08500
N337        N  0.51577973  0.15751309  0.34483298    -0.25900
N338        N  0.52145007  0.17363680  0.33795212    -0.33700
C339        C  0.54164158  0.17075343  0.33436373     0.02500
C340        C  0.54914490  0.15163126  0.33907879     0.08500
C341        C  0.53225634  0.14371496  0.34575092    -0.04600
H342        H  0.54978821  0.18148600  0.32853276     0.09200
H343        H  0.53155782  0.12868452  0.35043089     0.10400
Cu344      Cu  0.50072190  0.19677028  0.33173258     0.44200
Cu345      Cu  0.48539053  0.15516381  0.35189738     0.42000
Cu346      Cu  0.44578244  0.19201108  0.33849292     0.43900
N347        N  0.47725437  0.21189335  0.32201183    -0.33300
N348        N  0.45669793  0.20965207  0.32418788    -0.27500
C349        C  0.44553690  0.21793125  0.31508991    -0.03600
C350        C  0.45984947  0.22557970  0.30671785     0.08600
C351        C  0.47980683  0.22163295  0.31152434     0.02400
H352        H  0.42839549  0.21681337  0.31420318     0.10100
H353        H  0.49513278  0.22437050  0.30742195     0.09100
N354        N  0.44007026  0.17200370  0.35279759    -0.34700
N355        N  0.45421759  0.15887629  0.35763220    -0.26900
C356        C  0.44490552  0.14817044  0.36657021    -0.02100
C357        C  0.42388361  0.15474282  0.36732916     0.06500
C358        C  0.42138646  0.16986086  0.35848159     0.04600
H359        H  0.45268970  0.13599911  0.37184669     0.09700
H360        H  0.40701401  0.17858364  0.35625625     0.08500
N361        N  0.20886301  0.07263194  0.42279154    -0.25900
N362        N  0.19826180  0.07657940  0.43263703    -0.33700
C363        C  0.17760541  0.07157009  0.43102709     0.02500
C364        C  0.17498405  0.06402780  0.41960361     0.08500
C365        C  0.19521646  0.06493245  0.41464274    -0.04600
H366        H  0.16560360  0.07234998  0.43787127     0.09200
H367        H  0.19977806  0.06010249  0.40583565     0.10400
Cu368      Cu  0.21281955  0.08616689  0.44822394     0.44200
Cu369      Cu  0.24158806  0.07716350  0.42133892     0.42000
Cu370      Cu  0.27015655  0.08716563  0.44912940     0.43900
N371        N  0.23037268  0.08963512  0.46363671    -0.33300
N372        N  0.25141464  0.08861651  0.46413142    -0.27500
C373        C  0.25758448  0.08843899  0.47553356    -0.03600
C374        C  0.23948847  0.08974874  0.48250541     0.08600
C375        C  0.22258968  0.09051172  0.47466865     0.02400
H376        H  0.27393637  0.08704361  0.47850581     0.10100
H377        H  0.20578538  0.09033658  0.47684601     0.09100
N378        N  0.28384092  0.08899556  0.43253927    -0.34700
N379        N  0.27372529  0.08500983  0.42251695    -0.26900
C380        C  0.28705266  0.08884580  0.41344532    -0.02100
C381        C  0.30631435  0.09580605  0.41799371     0.06500
C382        C  0.30371838  0.09574350  0.43010566     0.04600
H383        H  0.28268880  0.08772698  0.40422734     0.09700
H384        H  0.31523343  0.10071698  0.43666718     0.08500
C385        C  0.39607868  0.13312497  0.39454123     0.14100
C386        C  0.37559950  0.12891500  0.39008426     0.01000
C387        C  0.37098387  0.13353549  0.37821661     0.16000
C388        C  0.38664410  0.14216097  0.37085697     0.25400
C389        C  0.40724518  0.14618373  0.37524083    -0.40900
C390        C  0.41185794  0.14159948  0.38714777     0.32500
C391        C  0.35887147  0.11980037  0.39774874     0.01100
F392        F  0.35119908  0.12981022  0.37378178    -0.13200
F393        F  0.43148545  0.14572529  0.39168122    -0.13700
C394        C  0.35109460  0.13155424  0.40740124     0.16000
C395        C  0.33422970  0.12353060  0.41416695     0.25400
C396        C  0.32482270  0.10373510  0.41128297    -0.40800
C397        C  0.33282143  0.09185979  0.40172624     0.32400
C398        C  0.34984288  0.09977290  0.39505485     0.14100
F399        F  0.35928886  0.15116922  0.40997028    -0.13200
F400        F  0.32431238  0.07248083  0.39895192    -0.13700
F401        F  0.32641532  0.13558249  0.42316451    -0.16000
F402        F  0.35754141  0.08792902  0.38594101    -0.14600
F403        F  0.40083350  0.12875307  0.40600097    -0.14600
F404        F  0.38181978  0.14592119  0.35934380    -0.16000
C405        C  0.20484685  0.05566433  0.53213415     0.14100
C406        C  0.21927098  0.07275112  0.53095048     0.01000
C407        C  0.22391178  0.08556230  0.54077091     0.16000
C408        C  0.21355725  0.08197583  0.55153081     0.25400
C409        C  0.19791733  0.06579533  0.55258326    -0.40900
C410        C  0.19415454  0.05223603  0.54283297     0.32500
C411        C  0.22728201  0.07878744  0.51914159     0.01100
F412        F  0.23804515  0.10197971  0.53982053    -0.13200
F413        F  0.17916081  0.03656430  0.54331933    -0.13700
C414        C  0.21853784  0.09674824  0.51341232     0.16000
C415        C  0.22355203  0.10101875  0.50162530     0.25400
C416        C  0.23760580  0.08755368  0.49543532    -0.40800
C417        C  0.24754679  0.07044004  0.50141472     0.32400
C418        C  0.24218396  0.06591872  0.51318086     0.14100
F419        F  0.20419909  0.10945489  0.51905757    -0.13200
F420        F  0.26124901  0.05723228  0.49564363    -0.13700
F421        F  0.21421755  0.11798997  0.49613191    -0.16000
F422        F  0.25091967  0.04859149  0.51863003    -0.14600
F423        F  0.20010771  0.04314426  0.52268271    -0.14600
F424        F  0.21871286  0.09457833  0.56086856    -0.16000
C425        C  0.08460463  0.17585418  0.63037123     0.14100
C426        C  0.09944563  0.19252287  0.63150778     0.01000
C427        C  0.12037081  0.18961238  0.62743700     0.16000
C428        C  0.12654135  0.17000092  0.62249421     0.25400
C429        C  0.11174255  0.15306440  0.62145428    -0.40900
C430        C  0.09060667  0.15635281  0.62531931     0.32500
C431        C  0.09308400  0.21271304  0.63726605     0.01100
F432        F  0.13493871  0.20560706  0.62852489    -0.13200
F433        F  0.07548949  0.14098352  0.62393077    -0.13700
C434        C  0.08930080  0.21304642  0.64946283     0.16000
C435        C  0.08235736  0.23184450  0.65495278     0.25400
C436        C  0.07907666  0.25073251  0.64829858    -0.40800
C437        C  0.08309834  0.25031039  0.63604003     0.32400
C438        C  0.09006021  0.23143020  0.63058672     0.14100
F439        F  0.09225914  0.19504521  0.65604852    -0.13200
F440        F  0.08070104  0.26821877  0.62933122    -0.13700
F441        F  0.07818403  0.23122848  0.66671254    -0.16000
F442        F  0.09353258  0.23129120  0.61874574    -0.14600
F443        F  0.06417184  0.17859494  0.63406519    -0.14600
F444        F  0.14714506  0.16743669  0.61908710    -0.16000
C445        C  0.43143814  0.24997395  0.28020924     0.14100
C446        C  0.44503600  0.24396620  0.27093646     0.01000
C447        C  0.46373409  0.23248383  0.27346476     0.16000
C448        C  0.46871058  0.22680472  0.28508267     0.25400
C449        C  0.45501424  0.23252878  0.29445093    -0.40900
C450        C  0.43633412  0.24424358  0.29188462     0.32500
C451        C  0.43966436  0.24907074  0.25853255     0.01100
F452        F  0.47714141  0.22660977  0.26461471    -0.13200
F453        F  0.42290793  0.25032747  0.30067280    -0.13700
C454        C  0.44158811  0.27012205  0.25423376     0.16000
C455        C  0.43865017  0.27446786  0.24218993     0.25400
C456        C  0.43380623  0.25774890  0.23427029    -0.40800
C457        C  0.43105843  0.23681073  0.23873195     0.32400
C458        C  0.43401225  0.23252903  0.25074899     0.14100
F459        F  0.44739238  0.28625777  0.26160588    -0.13200
F460        F  0.42566905  0.22040757  0.23143895    -0.13700
F461        F  0.44190209  0.29475349  0.23819918    -0.16000
F462        F  0.43175686  0.21211795  0.25478646    -0.14600
F463        F  0.41321551  0.26099724  0.27790930    -0.14600
F464        F  0.48649831  0.21488428  0.28702520    -0.16000
C465        C  0.41982765  0.43585188  0.13376608     0.14100
C466        C  0.40318774  0.42258605  0.13769240     0.01000
C467        C  0.38200063  0.42830048  0.13524420     0.16000
C468        C  0.37745789  0.44709463  0.12895091     0.25400
C469        C  0.39409947  0.46048402  0.12495949    -0.40900
C470        C  0.41535843  0.45459911  0.12739845     0.32500
C471        C  0.40799809  0.40225400  0.14386503     0.01100
F472        F  0.36569995  0.41570891  0.13903938    -0.13200
F473        F  0.43187045  0.46650801  0.12324316    -0.13700
C474        C  0.41494531  0.40228049  0.15565548     0.16000
C475        C  0.42000031  0.38293958  0.16134273     0.25400
C476        C  0.41844132  0.36331977  0.15523892    -0.40800
C477        C  0.41129501  0.36341619  0.14344313     0.32400
C478        C  0.40601634  0.38271633  0.13784002     0.14100
F479        F  0.41688875  0.42106086  0.16162323    -0.13200
F480        F  0.40906867  0.34478199  0.13737552    -0.13700
F481        F  0.42716801  0.38349727  0.17265597    -0.16000
F482        F  0.39927350  0.38241027  0.12643983    -0.14600
F483        F  0.44044298  0.43031810  0.13585124    -0.14600
F484        F  0.35673911  0.45238401  0.12701135    -0.16000
C485        C  0.02741574  0.35902635  0.77171542     0.14100
C486        C  0.04684985  0.35104030  0.76748473     0.01000
C487        C  0.06426508  0.34939023  0.77518052     0.16000
C488        C  0.06266904  0.35681403  0.78682473     0.25400
C489        C  0.04361505  0.36634870  0.79094670    -0.40900
C490        C  0.02574972  0.36666116  0.78329214     0.32500
C491        C  0.04979414  0.34773941  0.75467772     0.01100
F492        F  0.08315865  0.34152962  0.77122484    -0.13200
F493        F  0.00691950  0.37549122  0.78661920    -0.13700
C494        C  0.05271816  0.36572742  0.74740568     0.16000
C495        C  0.05482940  0.36334670  0.73521542     0.25400
C496        C  0.05377451  0.34288311  0.73001818    -0.40800
C497        C  0.05155906  0.32472011  0.73736587     0.32400
C498        C  0.04954830  0.32716662  0.74964303     0.14100
F499        F  0.05340396  0.38570649  0.75216191    -0.13200
F500        F  0.05036558  0.30473908  0.73265606    -0.13700
F501        F  0.05811023  0.38111812  0.72850037    -0.16000
F502        F  0.04675478  0.30957936  0.75656629    -0.14600
F503        F  0.01027355  0.36040271  0.76440668    -0.14600
F504        F  0.07995262  0.35488013  0.79395545    -0.16000
C505        C  0.28891861  0.54446631  0.00786320     0.14100
C506        C  0.29452163  0.52534602  0.01366418     0.01000
C507        C  0.29268796  0.50571235  0.00765316     0.16000
C508        C  0.28651678  0.50538615  0.99574483     0.25400
C509        C  0.28232519  0.52471876  0.98975391    -0.40900
C510        C  0.28295768  0.54416609  0.99600136     0.32500
C511        C  0.30414487  0.52641061  0.02556236     0.01100
F512        F  0.29825274  0.48708061  0.01307489    -0.13200
F513        F  0.27840376  0.56299897  0.99049066    -0.13700
C514        C  0.29411898  0.51700690  0.03538062     0.16000
C515        C  0.30269575  0.51969950  0.04671899     0.25400
C516        C  0.32137114  0.53190889  0.04835117    -0.40800
C517        C  0.33189113  0.54036334  0.03839431     0.32400
C518        C  0.32330786  0.53769901  0.02713308     0.14100
F519        F  0.27563782  0.50593022  0.03403077    -0.13200
F520        F  0.35075470  0.55087234  0.03949332    -0.13700
F521        F  0.29227814  0.51111471  0.05611783    -0.16000
F522        F  0.33373280  0.54618830  0.01769875    -0.14600
F523        F  0.29002231  0.56355838  0.01360136    -0.14600
F524        F  0.28629393  0.48643587  0.98985090    -0.16000
C525        C  0.19253146  0.47037075  0.88487729     0.14100
C526        C  0.17229003  0.46767724  0.89002681     0.01000
C527        C  0.16968920  0.47229027  0.90209773     0.16000
C528        C  0.18680308  0.47992549  0.90882511     0.25400
C529        C  0.20705464  0.48291274  0.90366636    -0.40900
C530        C  0.20975504  0.47778064  0.89162599     0.32500
C531        C  0.15373408  0.46077375  0.88276006     0.01100
F532        F  0.15046086  0.46946849  0.90740166    -0.13200
F533        F  0.22911147  0.47971517  0.88635401    -0.13700
C534        C  0.15437907  0.44160127  0.87623337     0.16000
C535        C  0.13687928  0.43529928  0.86933616     0.25400
C536        C  0.11828952  0.44804231  0.86883534    -0.40800
C537        C  0.11775316  0.46724813  0.87541564     0.32400
C538        C  0.13524912  0.47350998  0.88226324     0.14100
F539        F  0.17181869  0.42869700  0.87674328    -0.13200
F540        F  0.10058433  0.48049302  0.87496398    -0.13700
F541        F  0.13798920  0.41639176  0.86344108    -0.16000
F542        F  0.13431211  0.49240868  0.88819867    -0.14600
F543        F  0.19551149  0.46639774  0.87320123    -0.14600
F544        F  0.18320447  0.48516814  0.92028310    -0.16000
C545        C  0.56965122  0.16472101  0.13895634     0.14100
C546        C  0.54771082  0.16019148  0.13824540     0.01000
C547        C  0.54116205  0.13977789  0.13438818     0.16000
C548        C  0.55624011  0.12389904  0.13181270     0.25400
C549        C  0.57819356  0.12818843  0.13297304    -0.40900
C550        C  0.58473071  0.14891840  0.13628390     0.32500
C551        C  0.53181823  0.17614406  0.14242953     0.01100
F552        F  0.52009424  0.13503178  0.13339237    -0.13200
F553        F  0.60577805  0.15385342  0.13707041    -0.13700
C554        C  0.53172576  0.19727360  0.13803529     0.16000
C555        C  0.51801383  0.21272910  0.14285860     0.25400
C556        C  0.50382433  0.20721306  0.15204206    -0.40800
C557        C  0.50324521  0.18572041  0.15596096     0.32400
C558        C  0.51730643  0.17051603  0.15136491     0.14100
F559        F  0.54509966  0.20300645  0.12913652    -0.13200
F560        F  0.48897707  0.17919081  0.16423503    -0.13700
F561        F  0.51929883  0.23319980  0.13881847    -0.16000
F562        F  0.51721676  0.15038885  0.15599016    -0.14600
F563        F  0.57653087  0.18414449  0.14280986    -0.14600
F564        F  0.54924978  0.10400960  0.12885369    -0.16000
C565        C  0.49000554  0.67334602  0.07924094     0.14100
C566        C  0.47748303  0.67788811  0.08918304     0.01000
C567        C  0.47892469  0.69819129  0.09448051     0.16000
C568        C  0.49228190  0.71400805  0.08964792     0.25400
C569        C  0.50431978  0.70972460  0.07937970    -0.40900
C570        C  0.50341947  0.68896021  0.07445537     0.32500
C571        C  0.46218077  0.66157152  0.09346082     0.01100
F572        F  0.46715281  0.70276452  0.10422444    -0.13200
F573        F  0.51556408  0.68358632  0.06498458    -0.13700
C574        C  0.46957527  0.64203759  0.09809503     0.16000
C575        C  0.45539277  0.62510326  0.10020337     0.25400
C576        C  0.43348732  0.62739461  0.09761459    -0.40800
C577        C  0.42601560  0.64753414  0.09364943     0.32400
C578        C  0.44025392  0.66440545  0.09155690     0.14100
F579        F  0.49073092  0.63910428  0.10011946    -0.13200
F580        F  0.40494067  0.65088676  0.09159310    -0.13700
F581        F  0.46343527  0.60613292  0.10406249    -0.16000
F582        F  0.43276814  0.68315544  0.08703517    -0.14600
F583        F  0.48867741  0.65389534  0.07389531    -0.14600
F584        F  0.49266073  0.73369369  0.09474333    -0.16000
C585        C  0.57937270  0.89627203  0.08991537     0.14100
C586        C  0.59633386  0.90819937  0.08521389     0.01000
C587        C  0.60684810  0.90087274  0.07506314     0.16000
C588        C  0.60075246  0.88155481  0.06978283     0.25400
C589        C  0.58389171  0.86931298  0.07455897    -0.40900
C590        C  0.57310954  0.87705185  0.08461629     0.32500
C591        C  0.60352472  0.92790876  0.09117788     0.01100
F592        F  0.62344882  0.91214625  0.07048250    -0.13200
F593        F  0.55615231  0.86635386  0.08918961    -0.13700
C594        C  0.61329740  0.92656076  0.10228877     0.16000
C595        C  0.61991111  0.94512704  0.10811047     0.25400
C596        C  0.61695075  0.96546079  0.10286147    -0.40800
C597        C  0.60722536  0.96668742  0.09164463     0.32400
C598        C  0.60056335  0.94803592  0.08586755     0.14100
F599        F  0.61647314  0.90716485  0.10749311    -0.13200
F600        F  0.60448298  0.98585582  0.08613716    -0.13700
F601        F  0.62854712  0.94310343  0.11904932    -0.16000
F602        F  0.59096281  0.94961082  0.07514635    -0.14600
F603        F  0.56876152  0.90338901  0.09960880    -0.14600
F604        F  0.61189810  0.87452724  0.06026542    -0.16000
C605        C  0.01730620  0.92437495  0.59228005     0.14100
C606        C  0.01274382  0.94625616  0.59392286     0.01000
C607        C  0.99153376  0.95338257  0.59313071     0.16000
C608        C  0.97527670  0.93902324  0.59011730     0.25400
C609        C  0.97994959  0.91728827  0.58801186    -0.40900
C610        C  0.00101670  0.90995548  0.58941187     0.32500
C611        C  0.03034019  0.96184989  0.59534335     0.01100
F612        F  0.98674545  0.97444810  0.59465791    -0.13200
F613        F  0.00609218  0.88915480  0.58723022    -0.13700
C614        C  0.04520565  0.96448638  0.58620098     0.16000
C615        C  0.06185191  0.97921239  0.58727754     0.25400
C616        C  0.06428231  0.99144466  0.59767096    -0.40800
C617        C  0.04911768  0.98889994  0.60680380     0.32400
C618        C  0.03221713  0.97435130  0.60558849     0.14100
F619        F  0.04326023  0.95311094  0.57603404    -0.13200
F620        F  0.05079459  0.00006675  0.61704126    -0.13700
F621        F  0.07503907  0.98191787  0.57789353    -0.16000
F622        F  0.01788418  0.97218301  0.61450615    -0.14600
F623        F  0.03770003  0.91714190  0.59307331    -0.14600
F624        F  0.95498792  0.94641388  0.58903150    -0.16000
C625        C  0.93251647  0.45717798  0.63957853     0.14100
C626        C  0.95386163  0.45982400  0.63609378     0.01000
C627        C  0.96021646  0.47947693  0.63106642     0.16000
C628        C  0.94565550  0.49648267  0.63001988     0.25400
C629        C  0.92444967  0.49404909  0.63395390    -0.40900
C630        C  0.91794726  0.47397987  0.63840913     0.32500
C631        C  0.96956998  0.44261661  0.63871363     0.01100
F632        F  0.98065685  0.48235494  0.62742087    -0.13200
F633        F  0.89744227  0.47058529  0.64178663    -0.13700
C634        C  0.96600969  0.42145643  0.63485877     0.16000
C635        C  0.97872907  0.40458316  0.63904719     0.25400
C636        C  0.99525391  0.40861897  0.64715133    -0.40800
C637        C  0.99960374  0.42995870  0.65042445     0.32400
C638        C  0.98687017  0.44677933  0.64626805     0.14100
F639        F  0.94965903  0.41704250  0.62737809    -0.13200
F640        F  0.01597134  0.43452825  0.65786426    -0.13700
F641        F  0.97393693  0.38419427  0.63579153    -0.16000
F642        F  0.99066687  0.46698294  0.65022003    -0.14600
F643        F  0.92595393  0.43859210  0.64469688    -0.14600
F644        F  0.95266912  0.51558585  0.62575298    -0.16000
C645        C  0.91634096  0.72784479  0.59164454     0.14100
C646        C  0.89677613  0.71725934  0.59009416     0.01000
C647        C  0.88103659  0.72671996  0.58293414     0.16000
C648        C  0.88445290  0.74695958  0.57784842     0.25400
C649        C  0.90367759  0.75805166  0.57988300    -0.40900
C650        C  0.91976412  0.74804421  0.58660770     0.32500
C651        C  0.89219654  0.69731181  0.59676744     0.01100
F652        F  0.86195840  0.71681970  0.58135328    -0.13200
F653        F  0.93892191  0.75774148  0.58825556    -0.13700
C654        C  0.89175553  0.69781540  0.60917118     0.16000
C655        C  0.88698687  0.67931226  0.61564573     0.25400
C656        C  0.88263176  0.65985592  0.60983522    -0.40800
C657        C  0.88330487  0.65930227  0.59739150     0.32400
C658        C  0.88795602  0.67792078  0.59091167     0.14100
F659        F  0.89569333  0.71639974  0.61502577    -0.13200
F660        F  0.87893624  0.64088339  0.59148167    -0.13700
F661        F  0.88721412  0.68035403  0.62762287    -0.16000
F662        F  0.88851584  0.67699231  0.57893097    -0.14600
F663        F  0.93207748  0.71866688  0.59817451    -0.14600
F664        F  0.86851544  0.75615713  0.57148616    -0.16000
C665        C  0.90165423  0.53162761  0.83360882     0.14100
C666        C  0.89778168  0.51395861  0.84101788     0.01000
C667        C  0.87732122  0.51115513  0.84588257     0.16000
C668        C  0.86061834  0.52504135  0.84269739     0.25400
C669        C  0.86422975  0.54174636  0.83454761    -0.40900
C670        C  0.88505643  0.54534681  0.83038501     0.32500
C671        C  0.91464227  0.49750874  0.84251866     0.01100
F672        F  0.87319571  0.49416013  0.85304644    -0.13200
F673        F  0.88922542  0.56183122  0.82286771    -0.13700
C674        C  0.92385265  0.49328209  0.85359653     0.16000
C675        C  0.94113984  0.47904246  0.85455644     0.25400
C676        C  0.94929777  0.46868837  0.84445595    -0.40800
C677        C  0.93954233  0.47255476  0.83344350     0.32400
C678        C  0.92239630  0.48673529  0.83251508     0.14100
F679        F  0.91654374  0.50343251  0.86339674    -0.13200
F680        F  0.94721101  0.46349262  0.82340855    -0.13700
F681        F  0.94984676  0.47533769  0.86535074    -0.16000
F682        F  0.91351727  0.49027289  0.82173603    -0.14600
F683        F  0.92143560  0.53505318  0.82908673    -0.14600
F684        F  0.84066666  0.52111163  0.84683123    -0.16000
C685        C  0.79757732  0.56353506  0.70618057     0.14100
C686        C  0.80192784  0.58088153  0.71372945     0.01000
C687        C  0.81323998  0.59862514  0.70928059     0.16000
C688        C  0.82059909  0.59879340  0.69761129     0.25400
C689        C  0.81691790  0.58112760  0.69015857    -0.40900
C690        C  0.80507549  0.56360622  0.69452499     0.32500
C691        C  0.79623775  0.57991540  0.72645758     0.01100
F692        F  0.81818934  0.61535562  0.71644276    -0.13200
F693        F  0.80071524  0.54651098  0.68750936    -0.13700
C694        C  0.80422322  0.56325548  0.73358756     0.16000
C695        C  0.80107031  0.56353888  0.74581423     0.25400
C696        C  0.78993031  0.58055329  0.75119195    -0.40800
C697        C  0.78117400  0.59676931  0.74399413     0.32400
C698        C  0.78427966  0.59642003  0.73173841     0.14100
F699        F  0.81593542  0.54714683  0.72877800    -0.13200
F700        F  0.77057332  0.61358281  0.74884433    -0.13700
F701        F  0.80903492  0.54714312  0.75238778    -0.16000
F702        F  0.77595791  0.61245774  0.72503227    -0.14600
F703        F  0.78620777  0.54642217  0.71013608    -0.14600
F704        F  0.83247440  0.61569811  0.69387455    -0.16000
C705        C  0.38767602  0.59788963  0.90890130     0.14100
C706        C  0.38464633  0.60775407  0.89784852     0.01000
C707        C  0.36468525  0.60621480  0.89228118     0.16000
C708        C  0.34803749  0.59489280  0.89766088     0.25400
C709        C  0.35114103  0.58475120  0.90865797    -0.40900
C710        C  0.37117769  0.58635435  0.91421089     0.32500
C711        C  0.40238773  0.61979816  0.89233213     0.01100
F712        F  0.36136648  0.61549913  0.88157670    -0.13200
F713        F  0.37507375  0.57634547  0.92465483    -0.13700
C714        C  0.42226885  0.60981452  0.89069832     0.16000
C715        C  0.43998511  0.62180132  0.88721443     0.25400
C716        C  0.43804267  0.64398288  0.88511949    -0.40800
C717        C  0.41782656  0.65367273  0.88595575     0.32400
C718        C  0.40013332  0.64169200  0.88958491     0.14100
F719        F  0.42470663  0.58853317  0.89293580    -0.13200
F720        F  0.41533061  0.67489212  0.88357540    -0.13700
F721        F  0.45927699  0.61193372  0.88676811    -0.16000
F722        F  0.38110412  0.65175647  0.89106592    -0.14600
F723        F  0.40661891  0.59966157  0.91465157    -0.14600
F724        F  0.32873812  0.59434917  0.89223441    -0.16000
C725        C  0.52870148  0.74556735  0.95506372     0.14100
C726        C  0.54510053  0.76014415  0.95769599     0.01000
C727        C  0.55715242  0.76902192  0.94842992     0.16000
C728        C  0.55338451  0.76267957  0.93673137     0.25400
C729        C  0.53740646  0.74751365  0.93415152    -0.40900
C730        C  0.52492661  0.73924482  0.94343860     0.32500
C731        C  0.55017468  0.76480468  0.97020387     0.01100
F732        F  0.57305303  0.78318745  0.95075148    -0.13200
F733        F  0.50982285  0.72409287  0.94140363    -0.13700
C734        C  0.55550969  0.74781435  0.97781907     0.16000
C735        C  0.55784318  0.75133328  0.98990931     0.25400
C736        C  0.55508572  0.77199960  0.99464627    -0.40800
C737        C  0.55082294  0.78926486  0.98694464     0.32400
C738        C  0.54834794  0.78566666  0.97479343     0.14100
F739        F  0.55814650  0.72764453  0.97353012    -0.13200
F740        F  0.54781075  0.80936963  0.99123032    -0.13700
F741        F  0.56282044  0.73443755  0.99698401    -0.16000
F742        F  0.54312913  0.80233656  0.96761211    -0.14600
F743        F  0.51657693  0.73706047  0.96384684    -0.14600
F744        F  0.56539093  0.77127712  0.92793461    -0.16000
C745        C  0.64736510  0.64998467  0.86180549     0.14100
C746        C  0.64559415  0.63916233  0.85100584     0.01000
C747        C  0.62533737  0.63583678  0.84606815     0.16000
C748        C  0.60704305  0.64333827  0.85183533     0.25400
C749        C  0.60871209  0.65431519  0.86270006    -0.40900
C750        C  0.62915514  0.65738404  0.86763822     0.32500
C751        C  0.66496762  0.63135813  0.84493289     0.01100
F752        F  0.62328480  0.62516027  0.83568154    -0.13200
F753        F  0.63165416  0.66707240  0.87827121    -0.13700
C754        C  0.67756199  0.61526393  0.85010587     0.16000
C755        C  0.69618553  0.60818331  0.84452232     0.25400
C756        C  0.70265039  0.61723876  0.83367423    -0.40800
C757        C  0.68990796  0.63341600  0.82852932     0.32400
C758        C  0.67120714  0.64032283  0.83409626     0.14100
F759        F  0.67161123  0.60619072  0.86051367    -0.13200
F760        F  0.69585390  0.64313430  0.81830751    -0.13700
F761        F  0.70750770  0.59205899  0.84960718    -0.16000
F762        F  0.65945268  0.65620585  0.82906196    -0.14600
F763        F  0.66684838  0.65359087  0.86665666    -0.14600
F764        F  0.58782809  0.64025599  0.84658600    -0.16000
C765        C  0.11630237  0.05369643  0.41367035     0.14100
C766        C  0.11705189  0.03490013  0.40681365     0.01000
C767        C  0.13705432  0.02686756  0.40329752     0.16000
C768        C  0.15592714  0.03671490  0.40710356     0.25400
C769        C  0.15517322  0.05492887  0.41443980    -0.40900
C770        C  0.13515253  0.06363660  0.41740554     0.32500
C771        C  0.09714432  0.02275553  0.40422264     0.01100
F772        F  0.13832260  0.00913747  0.39637590    -0.13200
F773        F  0.13378820  0.08173003  0.42402684    -0.13700
C774        C  0.07952101  0.03278315  0.39881741     0.16000
C775        C  0.06022977  0.02168484  0.39739060     0.25400
C776        C  0.05822700  0.00033381  0.40132211    -0.40800
C777        C  0.07606519  0.99012487  0.40636527     0.32400
C778        C  0.09526751  0.00121770  0.40783391     0.14100
F779        F  0.08090423  0.05342914  0.39504152    -0.13200
F780        F  0.07492814  0.96933120  0.40991452    -0.13700
F781        F  0.04323413  0.03218627  0.39270076    -0.16000
F782        F  0.11180663  0.99111490  0.41324573    -0.14600
F783        F  0.09730568  0.06190078  0.41725040    -0.14600
F784        F  0.17487858  0.02766025  0.40413726    -0.16000
C785        C  0.93184130  0.92134334  0.47222219     0.14100
C786        C  0.91861077  0.90320719  0.47293066     0.01000
C787        C  0.91193560  0.89308548  0.46249794     0.16000
C788        C  0.91882100  0.90069077  0.45149442     0.25400
C789        C  0.93274592  0.91837784  0.45078579    -0.40900
C790        C  0.93893414  0.92881758  0.46125466     0.32500
C791        C  0.91288907  0.89424638  0.48460928     0.01100
F792        F  0.89889655  0.87571559  0.46299724    -0.13200
F793        F  0.95166511  0.94642623  0.46088396    -0.13700
C794        C  0.90056131  0.90625779  0.49256610     0.16000
C795        C  0.89729305  0.89884118  0.50409091     0.25400
C796        C  0.90622919  0.87925951  0.50781717    -0.40800
C797        C  0.91780841  0.86679950  0.49968927     0.32400
C798        C  0.92116064  0.87429353  0.48817153     0.14100
F799        F  0.89205203  0.92536921  0.48922346    -0.13200
F800        F  0.92712917  0.84812477  0.50311092    -0.13700
F801        F  0.88559500  0.91091438  0.51168183    -0.16000
F802        F  0.93351996  0.86266784  0.48068793    -0.14600
F803        F  0.93840793  0.93144041  0.48220314    -0.14600
F804        F  0.91256011  0.89020596  0.44158177    -0.16000
C805        C  0.62474532  0.09337757  0.31709781     0.14100
C806        C  0.62670281  0.10648801  0.32710437     0.01000
C807        C  0.64628033  0.10729918  0.33314854     0.16000
C808        C  0.66389453  0.09569787  0.32894522     0.25400
C809        C  0.66213367  0.08336959  0.31857655    -0.40900
C810        C  0.64224678  0.08194844  0.31287328     0.32500
C811        C  0.60825661  0.11961747  0.33084100     0.01100
F812        F  0.64857707  0.12004832  0.34277898    -0.13200
F813        F  0.63968384  0.06941687  0.30317587    -0.13700
C814        C  0.59834137  0.11611639  0.34179111     0.16000
C815        C  0.57930423  0.12675116  0.34459530     0.25400
C816        C  0.56985222  0.14103820  0.33644825    -0.40800
C817        C  0.58022784  0.14480226  0.32557780     0.32400
C818        C  0.59931856  0.13440513  0.32289700     0.14100
F819        F  0.60667038  0.10178902  0.34957855    -0.13200
F820        F  0.57146068  0.15764454  0.31718808    -0.13700
F821        F  0.57017204  0.12298934  0.35526879    -0.16000
F822        F  0.60886296  0.13836638  0.31233963    -0.14600
F823        F  0.60580345  0.09179977  0.31133355    -0.14600
F824        F  0.68287908  0.09745987  0.33463166    -0.16000
C825        C  0.74284409  0.02561694  0.21711654     0.14100
C826        C  0.72965418  0.04092307  0.21163891     0.01000
C827        C  0.72164487  0.05804587  0.21837099     0.16000
C828        C  0.72644081  0.05972726  0.23035739     0.25400
C829        C  0.73876226  0.04386925  0.23605878    -0.40900
C830        C  0.74730720  0.02700232  0.22923191     0.32500
C831        C  0.72333802  0.03894948  0.19905984     0.01100
F832        F  0.70846276  0.07285525  0.21341966    -0.13200
F833        F  0.75925806  0.01133495  0.23429649    -0.13700
C834        C  0.71241610  0.02063985  0.19502523     0.16000
C835        C  0.70294227  0.02056074  0.18381017     0.25400
C836        C  0.70397915  0.03893774  0.17658243    -0.40800
C837        C  0.71623519  0.05655665  0.18029212     0.32400
C838        C  0.72596184  0.05649066  0.19137783     0.14100
F839        F  0.70955534  0.00346374  0.20225359    -0.13200
F840        F  0.71839251  0.07411419  0.17327212    -0.13700
F841        F  0.69139007  0.00318968  0.18044782    -0.16000
F842        F  0.73725260  0.07398424  0.19482830    -0.14600
F843        F  0.75124073  0.00920621  0.21075712    -0.14600
F844        F  0.71894590  0.07701964  0.23633757    -0.16000
C845        C  0.82950487  0.97997423  0.33867431     0.14100
C846        C  0.85078730  0.98186465  0.33492155     0.01000
C847        C  0.85506572  0.99064587  0.32371339     0.16000
C848        C  0.83846009  0.99857496  0.31668068     0.25400
C849        C  0.81720604  0.99763005  0.32069252    -0.40900
C850        C  0.81288603  0.98764264  0.33160527     0.32500
C851        C  0.86849419  0.97647423  0.34310501     0.01100
F852        F  0.87544002  0.99200503  0.31969917    -0.13200
F853        F  0.79253511  0.98534009  0.33550508    -0.13700
C854        C  0.86986183  0.95612939  0.34845058     0.16000
C855        C  0.88576619  0.95182802  0.35682238     0.25400
C856        C  0.90074443  0.96772681  0.35988455    -0.40800
C857        C  0.89952556  0.98794096  0.35437646     0.32400
C858        C  0.88350224  0.99229200  0.34613499     0.14100
F859        F  0.85580560  0.94041722  0.34555279    -0.13200
F860        F  0.91311890  0.00394949  0.35742162    -0.13700
F861        F  0.88663737  0.93203170  0.36183088    -0.16000
F862        F  0.88206141  0.01235497  0.34149715    -0.14600
F863        F  0.82481573  0.97159891  0.34944814    -0.14600
F864        F  0.84337850  0.00814807  0.30624988    -0.16000
loop_ 
_geom_bond_atom_site_label_1 
_geom_bond_atom_site_label_2 
_geom_bond_distance 
_geom_bond_site_symmetry_2 
_ccdc_geom_bond_type 
N1            N2   1.320       .  A
N1            C5   1.349       .  A
N1           Cu9   2.075       .  S
N2            C3   1.339       .  A
N2           Cu8   2.056       .  S
C3            C4   1.382       .  A
C3            H6   1.081       .  S
C4            C5   1.388       .  A
C4          C809   1.478       .  S
C5            H7   1.081       .  S
Cu8          N11   2.057       .  S
Cu9          N19   2.077       .  S
Cu10         N12   2.077       .  S
Cu10         N18   2.079       .  S
N11          N12   1.319       .  A
N11          C15   1.339       .  A
N12          C13   1.348       .  A
C13          C14   1.391       .  A
C13          H16   1.081       .  S
C14          C15   1.385       .  A
C14         C829   1.487       .  S
C15          H17   1.081       .  S
N18          N19   1.324       .  A
N18          C22   1.345       .  A
N19          C20   1.342       .  A
C20          C21   1.385       .  A
C20          H23   1.083       .  S
C21          C22   1.385       .  A
C21         C849   1.483   1_545  S
C22          H24   1.085       .  S
N25          N26   1.322       .  A
N25          C29   1.348       .  A
N25         Cu33   2.085   1_455  S
N26          C27   1.344       .  A
N26         Cu32   2.074   1_455  S
C27          C28   1.384       .  A
C27          H30   1.080       .  S
C28          C29   1.388       .  A
C28         C776   1.483   1_565  S
C29          H31   1.080       .  S
Cu32         N35   2.074       .  S
Cu33         N43   2.085       .  S
Cu34         N36   2.066       .  S
Cu34         N42   2.067       .  S
N35          N36   1.321       .  A
N35          C39   1.344       .  A
N36          C37   1.345       .  A
C37          C38   1.384       .  A
C37          H40   1.082       .  S
C38          C39   1.386       .  A
C38         C789   1.480       .  S
C39          H41   1.082       .  S
N42          N43   1.322       .  A
N42          C46   1.344       .  A
N43          C44   1.346       .  A
C44          C45   1.388       .  A
C44          H47   1.081       .  S
C45          C46   1.383       .  A
C45         C856   1.482       .  S
C46          H48   1.081       .  S
N49          N50   1.321       .  A
N49          C53   1.344       .  A
N49         Cu57   2.068       .  S
N50          C51   1.343       .  A
N50         Cu56   2.068       .  S
C51          C52   1.384       .  A
C51          H54   1.081       .  S
C52          C53   1.385       .  A
C52         C716   1.477       .  S
C53          H55   1.080       .  S
Cu56         N59   2.068       .  S
Cu57         N67   2.069       .  S
Cu58         N60   2.075       .  S
Cu58         N66   2.076       .  S
N59          N60   1.321       .  A
N59          C63   1.343       .  A
N60          C61   1.346       .  A
C61          C62   1.386       .  A
C61          H64   1.082       .  S
C62          C63   1.385       .  A
C62         C729   1.480       .  S
C63          H65   1.082       .  S
N66          N67   1.321       .  A
N66          C70   1.343       .  A
N67          C68   1.345       .  A
C68          C69   1.388       .  A
C68          H71   1.080       .  S
C69          C70   1.388       .  A
C69         C749   1.488       .  S
C70          H72   1.081       .  S
N73          N74   1.321       .  A
N73          C77   1.351       .  A
N73         Cu81   2.084       .  S
N74          C75   1.339       .  A
N74         Cu80   2.062       .  S
C75          C76   1.381       .  A
C75          H78   1.081       .  S
C76          C77   1.389       .  A
C76         C669   1.479       .  S
C77          H79   1.080       .  S
Cu80         N83   2.062       .  S
Cu81         N91   2.085       .  S
Cu82         N84   2.076       .  S
Cu82         N90   2.077       .  S
N83          N84   1.319       .  A
N83          C87   1.342       .  A
N84          C85   1.347       .  A
C85          C86   1.389       .  A
C85          H88   1.082       .  S
C86          C87   1.385       .  A
C86         C696   1.484       .  S
C87          H89   1.082       .  S
N90          N91   1.324       .  A
N90          C94   1.344       .  A
N91          C92   1.346       .  A
C92          C93   1.388       .  A
C92          H95   1.080       .  S
C93          C94   1.385       .  A
C93         C756   1.486       .  S
C94          H96   1.081       .  S
N97          N98   1.320       .  A
N97         C101   1.348       .  A
N97        Cu105   2.076       .  S
N98          C99   1.340       .  A
N98        Cu104   2.063       .  S
C99         C100   1.385       .  A
C99         H102   1.081       .  S
C100        C101   1.389       .  A
C100        C629   1.485       .  S
C101        H103   1.082       .  S
Cu104       N107   2.062       .  S
Cu105       N115   2.077       .  S
Cu106       N108   2.086       .  S
Cu106       N114   2.088       .  S
N107        N108   1.321       .  A
N107        C111   1.343       .  A
N108        C109   1.348       .  A
C109        C110   1.390       .  A
C109        H112   1.082       .  S
C110        C111   1.384       .  A
C110        C689   1.484       .  S
C111        H113   1.081       .  S
N114        N115   1.324       .  A
N114        C118   1.346       .  A
N115        C116   1.346       .  A
C116        C117   1.384       .  A
C116        H119   1.080       .  S
C117        C118   1.387       .  A
C117        C656   1.483       .  S
C118        H120   1.080       .  S
N121        N122   1.321       .  A
N121        C125   1.347       .  A
N121       Cu129   2.077       .  S
N122        C123   1.343       .  A
N122       Cu128   2.065       .  S
C123        C124   1.382       .  A
C123        H126   1.081       .  S
C124        C125   1.386       .  A
C124        C609   1.477       .  S
C125        H127   1.081       .  S
Cu128       N131   2.065       .  S
Cu129       N139   2.079       .  S
Cu130       N132   2.080       .  S
Cu130       N138   2.080       .  S
N131        N132   1.322       .  A
N131        C135   1.342       .  A
N132        C133   1.348       .  A
C133        C134   1.387       .  A
C133        H136   1.081       .  S
C134        C135   1.381       .  A
C134        C796   1.477       .  S
C135        H137   1.081       .  S
N138        N139   1.323       .  A
N138        C142   1.347       .  A
N139        C140   1.344       .  A
C140        C141   1.385       .  A
C140        H143   1.080       .  S
C141        C142   1.386       .  A
C141        C649   1.483       .  S
C142        H144   1.081       .  S
N145        N146   1.320       .  A
N145        C149   1.349       .  A
N145       Cu153   2.083       .  S
N146        C147   1.339       .  A
N146       Cu152   2.059       .  S
C147        C148   1.385       .  A
C147        H150   1.080       .  S
C148        C149   1.392       .  A
C148        C569   1.488       .  S
C149        H151   1.081       .  S
Cu152       N155   2.059       .  S
Cu153       N163   2.084       .  S
Cu154       N156   2.070       .  S
Cu154       N162   2.072       .  S
N155        N156   1.319       .  A
N155        C159   1.341       .  A
N156        C157   1.347       .  A
C157        C158   1.387       .  A
C157        H160   1.081       .  S
C158        C159   1.384       .  A
C158        C736   1.480   1_554  S
C159        H161   1.081       .  S
N162        N163   1.324       .  A
N162        C166   1.344       .  A
N163        C164   1.345       .  A
C164        C165   1.387       .  A
C164        H167   1.079       .  S
C165        C166   1.384       .  A
C165        C589   1.483       .  S
C166        H168   1.080       .  S
N169        N170   1.321       .  A
N169        C173   1.345       .  A
N169       Cu177   2.071       .  S
N170        C171   1.343       .  A
N170       Cu176   2.071       .  S
C171        C172   1.385       .  A
C171        H174   1.080       .  S
C172        C173   1.386       .  A
C172        C549   1.481       .  S
C173        H175   1.081       .  S
Cu176       N179   2.071       .  S
Cu177       N187   2.072       .  S
Cu178       N180   2.066       .  S
Cu178       N186   2.067       .  S
N179        N180   1.321       .  A
N179        C183   1.342       .  A
N180        C181   1.347       .  A
C181        C182   1.385       .  A
C181        H184   1.081       .  S
C182        C183   1.384       .  A
C182        C836   1.478       .  S
C183        H185   1.081       .  S
N186        N187   1.321       .  A
N186        C190   1.342   1_545  A
N187        C188   1.344       .  A
C188        C189   1.387   1_545  A
C188        H191   1.080       .  S
C189        C190   1.385       .  A
C189        C596   1.483       .  S
C190        H192   1.080       .  S
N193        N194   1.319       .  A
N193        C197   1.345       .  A
N193       Cu201   2.073       .  S
N194        C195   1.342       .  A
N194       Cu200   2.054       .  S
C195        C196   1.384       .  A
C195        H198   1.081       .  S
C196        C197   1.387       .  A
C196        C709   1.480       .  S
C197        H199   1.080       .  S
Cu200       N203   2.054       .  S
Cu201       N211   2.075       .  S
Cu202       N204   2.085       .  S
Cu202       N210   2.087       .  S
N203        N204   1.322       .  A
N203        C207   1.339       .  A
N204        C205   1.350       .  A
C205        C206   1.387       .  A
C205        H208   1.082       .  S
C206        C207   1.378       .  A
C206        C509   1.473       .  S
C207        H209   1.082       .  S
N210        N211   1.323       .  A
N210        C214   1.346       .  A
N211        C212   1.345       .  A
C212        C213   1.387       .  A
C212        H215   1.081       .  S
C213        C214   1.389       .  A
C213        C529   1.489       .  S
C214        H216   1.081       .  S
N217        N218   1.320   1_455  A
N217        C221   1.348   1_455  A
N217       Cu225   2.078       .  S
N218        C219   1.342       .  A
N218       Cu224   2.067   1_655  S
C219        C220   1.386       .  A
C219        H222   1.081       .  S
C220        C221   1.389       .  A
C220        C676   1.485       .  S
C221        H223   1.080       .  S
Cu224       N227   2.067       .  S
Cu225       N235   2.079       .  S
Cu226       N228   2.093       .  S
Cu226       N234   2.094       .  S
N227        N228   1.320       .  A
N227        C231   1.343       .  A
N228        C229   1.348       .  A
C229        C230   1.395       .  A
C229        H232   1.080       .  S
C230        C231   1.388       .  A
C230        C489   1.497       .  S
C231        H233   1.080       .  S
N234        N235   1.323       .  A
N234        C238   1.349       .  A
N235        C236   1.344       .  A
C236        C237   1.387       .  A
C236        H239   1.080       .  S
C237        C238   1.391       .  A
C237        C536   1.492       .  S
C238        H240   1.081       .  S
N241        N242   1.321       .  A
N241        C245   1.347       .  A
N241       Cu249   2.084       .  S
N242        C243   1.342       .  A
N242       Cu248   2.068       .  S
C243        C244   1.387       .  A
C243        H246   1.081       .  S
C244        C245   1.391       .  A
C244        C576   1.490       .  S
C245        H247   1.081       .  S
Cu248       N251   2.067       .  S
Cu249       N259   2.085       .  S
Cu250       N252   2.063       .  S
Cu250       N258   2.065       .  S
N251        N252   1.320       .  A
N251        C255   1.341       .  A
N252        C253   1.346       .  A
C253        C254   1.385       .  A
C253        H256   1.082       .  S
C254        C255   1.385       .  A
C254        C516   1.479       .  S
C255        H257   1.081       .  S
N258        N259   1.323       .  A
N258        C262   1.343       .  A
N259        C260   1.346       .  A
C260        C261   1.388       .  A
C260        H263   1.080       .  S
C261        C262   1.384       .  A
C261        C469   1.483       .  S
C262        H264   1.081       .  S
N265        N266   1.319       .  A
N265        C269   1.348       .  A
N265       Cu273   2.079       .  S
N266        C267   1.339       .  A
N266       Cu272   2.058       .  S
C267        C268   1.385       .  A
C267        H270   1.080       .  S
C268        C269   1.392       .  A
C268        C556   1.488       .  S
C269        H271   1.081       .  S
Cu272       N275   2.058       .  S
Cu273       N283   2.081       .  S
Cu274       N276   2.087       .  S
Cu274       N282   2.088       .  S
N275        N276   1.320       .  A
N275        C279   1.341       .  A
N276        C277   1.349       .  A
C277        C278   1.390       .  A
C277        H280   1.081       .  S
C278        C279   1.383       .  A
C278        C456   1.483       .  S
C279        H281   1.081       .  S
N282        N283   1.325       .  A
N282        C286   1.347       .  A
N283        C284   1.344       .  A
C284        C285   1.384       .  A
C284        H287   1.080       .  S
C285        C286   1.386       .  A
C285        C476   1.482       .  S
C286        H288   1.081       .  S
N289        N290   1.321       .  A
N289        C293   1.349       .  A
N289       Cu297   2.084       .  S
N290        C291   1.341       .  A
N290       Cu296   2.065       .  S
C291        C292   1.383       .  A
C291        H294   1.081       .  S
C292        C293   1.389       .  A
C292        C636   1.482   1_455  S
C293        H295   1.081       .  S
Cu296       N299   2.065       .  S
Cu297       N307   2.085       .  S
Cu298       N300   2.069       .  S
Cu298       N306   2.070       .  S
N299        N300   1.320       .  A
N299        C303   1.341       .  A
N300        C301   1.347       .  A
C301        C302   1.387       .  A
C301        H304   1.081       .  S
C302        C303   1.384       .  A
C302        C496   1.481       .  S
C303        H305   1.080       .  S
N306        N307   1.323       .  A
N306        C310   1.342       .  A
N307        C308   1.346       .  A
C308        C309   1.388       .  A
C308        H311   1.081       .  S
C309        C310   1.384       .  A
C309        C436   1.485       .  S
C310        H312   1.081       .  S
N313        N314   1.321       .  A
N313        C317   1.345       .  A
N313       Cu321   2.066       .  S
N314        C315   1.343       .  A
N314       Cu320   2.078       .  S
C315        C316   1.390       .  A
C315        H318   1.079   1_545  S
C316        C317   1.388       .  A
C316        C616   1.490   1_545  S
C317        H319   1.079       .  S
Cu320       N323   2.078       .  S
Cu321       N331   2.065       .  S
Cu322       N324   2.066       .  S
Cu322       N330   2.066       .  S
N323        N324   1.320       .  A
N323        C327   1.347       .  A
N324        C325   1.341       .  A
C325        C326   1.386       .  A
C325        H328   1.081       .  S
C326        C327   1.390       .  A
C326        C409   1.488       .  S
C327        H329   1.081       .  S
N330        N331   1.320       .  A
N330        C334   1.344       .  A
N331        C332   1.342       .  A
C332        C333   1.387       .  A
C332        H335   1.080       .  S
C333        C334   1.386       .  A
C333        C429   1.483       .  S
C334        H336   1.081       .  S
N337        N338   1.319       .  A
N337        C341   1.347       .  A
N337       Cu345   2.071       .  S
N338        C339   1.341       .  A
N338       Cu344   2.063       .  S
C339        C340   1.387       .  A
C339        H342   1.069       .  S
C340        C341   1.390       .  A
C340        C816   1.486       .  S
C341        H343   1.076       .  S
Cu344       N347   2.063       .  S
Cu345       N355   2.072       .  S
Cu346       N348   2.072       .  S
Cu346       N354   2.073       .  S
N347        N348   1.319       .  A
N347        C351   1.342       .  A
N348        C349   1.347       .  A
C349        C350   1.389       .  A
C349        H352   1.081       .  S
C350        C351   1.386       .  A
C350        C449   1.485       .  S
C351        H353   1.080       .  S
N354        N355   1.324       .  A
N354        C358   1.343       .  A
N355        C356   1.344       .  A
C356        C357   1.382       .  A
C356        H359   1.081       .  S
C357        C358   1.382       .  A
C357        C389   1.474       .  S
C358        H360   1.081       .  S
N361        N362   1.321       .  A
N361        C365   1.347       .  A
N361       Cu369   2.077       .  S
N362        C363   1.344       .  A
N362       Cu368   2.075       .  S
C363        C364   1.386       .  A
C363        H366   1.081       .  S
C364        C365   1.388       .  A
C364        C769   1.486       .  S
C365        H367   1.080       .  S
Cu368       N371   2.074       .  S
Cu369       N379   2.077       .  S
Cu370       N372   2.067       .  S
Cu370       N378   2.067       .  S
N371        N372   1.322       .  A
N371        C375   1.342       .  A
N372        C373   1.347       .  A
C373        C374   1.384       .  A
C373        H376   1.082       .  S
C374        C375   1.382       .  A
C374        C416   1.474       .  S
C375        H377   1.082       .  S
N378        N379   1.323       .  A
N378        C382   1.343       .  A
N379        C380   1.345       .  A
C380        C381   1.383       .  A
C380        H383   1.081       .  S
C381        C382   1.380       .  A
C381        C396   1.472       .  S
C382        H384   1.081       .  S
C385        C386   1.404       .  A
C385        C390   1.399       .  A
C385        F403   1.358       .  S
C386        C387   1.403       .  A
C386        C391   1.474       .  S
C387        C388   1.395       .  A
C387        F392   1.358       .  S
C388        C389   1.406       .  A
C388        F404   1.358       .  S
C389        C390   1.407       .  A
C390        F393   1.358       .  S
C391        C394   1.404       .  A
C391        C398   1.405       .  A
C394        C395   1.397       .  A
C394        F399   1.358       .  S
C395        C396   1.406       .  A
C395        F401   1.358       .  S
C396        C397   1.404       .  A
C397        C398   1.397       .  A
C397        F400   1.358       .  S
C398        F402   1.358       .  S
C405        C406   1.403       .  A
C405        C410   1.400       .  A
C405        F423   1.358       .  S
C406        C407   1.400       .  A
C406        C411   1.476       .  S
C407        C408   1.398       .  A
C407        F412   1.358       .  S
C408        C409   1.411       .  A
C408        F424   1.357       .  S
C409        C410   1.411       .  A
C410        F413   1.357       .  S
C411        C414   1.404       .  A
C411        C418   1.404       .  A
C414        C415   1.396       .  A
C414        F419   1.358       .  S
C415        C416   1.404       .  A
C415        F421   1.358       .  S
C416        C417   1.407       .  A
C417        C418   1.402       .  A
C417        F420   1.358       .  S
C418        F422   1.358       .  S
C425        C426   1.401       .  A
C425        C430   1.395       .  A
C425        F443   1.358       .  S
C426        C427   1.402       .  A
C426        C431   1.473       .  S
C427        C428   1.399       .  A
C427        F432   1.358       .  S
C428        C429   1.410       .  A
C428        F444   1.357       .  S
C429        C430   1.410       .  A
C430        F433   1.357       .  S
C431        C434   1.401       .  A
C431        C438   1.402       .  A
C434        C435   1.396       .  A
C434        F439   1.358       .  S
C435        C436   1.411       .  A
C435        F441   1.357       .  S
C436        C437   1.410       .  A
C437        C438   1.399       .  A
C437        F440   1.357       .  S
C438        F442   1.358       .  S
C445        C446   1.403       .  A
C445        C450   1.402       .  A
C445        F463   1.357       .  S
C446        C447   1.402       .  A
C446        C451   1.478       .  S
C447        C448   1.396       .  A
C447        F452   1.358       .  S
C448        C449   1.411       .  A
C448        F464   1.357       .  S
C449        C450   1.409       .  A
C450        F453   1.357       .  S
C451        C454   1.403       .  A
C451        C458   1.403       .  A
C454        C455   1.401       .  A
C454        F459   1.358       .  S
C455        C456   1.409       .  A
C455        F461   1.357       .  S
C456        C457   1.409       .  A
C457        C458   1.398       .  A
C457        F460   1.358       .  S
C458        F462   1.358       .  S
C465        C466   1.403       .  A
C465        C470   1.400       .  A
C465        F483   1.358       .  S
C466        C467   1.402       .  A
C466        C471   1.477       .  S
C467        C468   1.399       .  A
C467        F472   1.358       .  S
C468        C469   1.410       .  A
C468        F484   1.357       .  S
C469        C470   1.409       .  A
C470        F473   1.357       .  S
C471        C474   1.404       .  A
C471        C478   1.402       .  A
C474        C475   1.401       .  A
C474        F479   1.358       .  S
C475        C476   1.409       .  A
C475        F481   1.357       .  S
C476        C477   1.408       .  A
C477        C478   1.398       .  A
C477        F480   1.357       .  S
C478        F482   1.358       .  S
C485        C486   1.400       .  A
C485        C490   1.399       .  A
C485        F503   1.359       .  S
C486        C487   1.400       .  A
C486        C491   1.476       .  S
C487        C488   1.401       .  A
C487        F492   1.358       .  S
C488        C489   1.413       .  A
C488        F504   1.356       .  S
C489        C490   1.416       .  A
C490        F493   1.356       .  S
C491        C494   1.401       .  A
C491        C498   1.404       .  A
C494        C495   1.394       .  A
C494        F499   1.358       .  S
C495        C496   1.407       .  A
C495        F501   1.358       .  S
C496        C497   1.410       .  A
C497        C498   1.404       .  A
C497        F500   1.357       .  S
C498        F502   1.357       .  S
C505        C506   1.404       .  A
C505        C510   1.394   1_554  A
C505        F523   1.358       .  S
C506        C507   1.406       .  A
C506        C511   1.477       .  S
C507        C508   1.402   1_554  A
C507        F512   1.358       .  S
C508        C509   1.406       .  A
C508        F524   1.357       .  S
C509        C510   1.405       .  A
C510        F513   1.358       .  S
C511        C514   1.404       .  A
C511        C518   1.404       .  A
C514        C515   1.402       .  A
C514        F519   1.357       .  S
C515        C516   1.409       .  A
C515        F521   1.357       .  S
C516        C517   1.407       .  A
C517        C518   1.394       .  A
C517        F520   1.358       .  S
C518        F522   1.358       .  S
C525        C526   1.406       .  A
C525        C530   1.401       .  A
C525        F543   1.358       .  S
C526        C527   1.406       .  A
C526        C531   1.489       .  S
C527        C528   1.399       .  A
C527        F532   1.358       .  S
C528        C529   1.409       .  A
C528        F544   1.357       .  S
C529        C530   1.411       .  A
C530        F533   1.357       .  S
C531        C534   1.406       .  A
C531        C538   1.405       .  A
C534        C535   1.403       .  A
C534        F539   1.358       .  S
C535        C536   1.411       .  A
C535        F541   1.357       .  S
C536        C537   1.411       .  A
C537        C538   1.399       .  A
C537        F540   1.357       .  S
C538        F542   1.358       .  S
C545        C546   1.406       .  A
C545        C550   1.398       .  A
C545        F563   1.358       .  S
C546        C547   1.407       .  A
C546        C551   1.485       .  S
C547        C548   1.399       .  A
C547        F552   1.358       .  S
C548        C549   1.408       .  A
C548        F564   1.357       .  S
C549        C550   1.407       .  A
C550        F553   1.358       .  S
C551        C554   1.407       .  A
C551        C558   1.404       .  A
C554        C555   1.402       .  A
C554        F559   1.358       .  S
C555        C556   1.410       .  A
C555        F561   1.357       .  S
C556        C557   1.411       .  A
C557        C558   1.395       .  A
C557        F560   1.357       .  S
C558        F562   1.358       .  S
C565        C566   1.401       .  A
C565        C570   1.395       .  A
C565        F583   1.358       .  S
C566        C567   1.404       .  A
C566        C571   1.479       .  S
C567        C568   1.404       .  A
C567        F572   1.358       .  S
C568        C569   1.411       .  A
C568        F584   1.357       .  S
C569        C570   1.411       .  A
C570        F573   1.357       .  S
C571        C574   1.403       .  A
C571        C578   1.402       .  A
C574        C575   1.400       .  A
C574        F579   1.358       .  S
C575        C576   1.411       .  A
C575        F581   1.356       .  S
C576        C577   1.412       .  A
C577        C578   1.399       .  A
C577        F580   1.357       .  S
C578        F582   1.358       .  S
C585        C586   1.402       .  A
C585        C590   1.397       .  A
C585        F603   1.358       .  S
C586        C587   1.402       .  A
C586        C591   1.473       .  S
C587        C588   1.398       .  A
C587        F592   1.358       .  S
C588        C589   1.411       .  A
C588        F604   1.357       .  S
C589        C590   1.410       .  A
C590        F593   1.357       .  S
C591        C594   1.401       .  A
C591        C598   1.402       .  A
C594        C595   1.396       .  A
C594        F599   1.358       .  S
C595        C596   1.411       .  A
C595        F601   1.357       .  S
C596        C597   1.410       .  A
C597        C598   1.399       .  A
C597        F600   1.357       .  S
C598        F602   1.358       .  S
C605        C606   1.406       .  A
C605        C610   1.399       .  A
C605        F623   1.358       .  S
C606        C607   1.404   1_455  A
C606        C611   1.479       .  S
C607        C608   1.399       .  A
C607        F612   1.358       .  S
C608        C609   1.406       .  A
C608        F624   1.358       .  S
C609        C610   1.406   1_655  A
C610        F613   1.358       .  S
C611        C614   1.402       .  A
C611        C618   1.403       .  A
C614        C615   1.395       .  A
C614        F619   1.358       .  S
C615        C616   1.411       .  A
C615        F621   1.356       .  S
C616        C617   1.413       .  A
C617        C618   1.402       .  A
C617        F620   1.357   1_565  S
C618        F622   1.358       .  S
C625        C626   1.405       .  A
C625        C630   1.395       .  A
C625        F643   1.358       .  S
C626        C627   1.407       .  A
C626        C631   1.485       .  S
C627        C628   1.403       .  A
C627        F632   1.358       .  S
C628        C629   1.410       .  A
C628        F644   1.357       .  S
C629        C630   1.408       .  A
C630        F633   1.357       .  S
C631        C634   1.408       .  A
C631        C638   1.405       .  A
C634        C635   1.401       .  A
C634        F639   1.358       .  S
C635        C636   1.407       .  A
C635        F641   1.357       .  S
C636        C637   1.408       .  A
C637        C638   1.398       .  A
C637        F640   1.358   1_655  S
C638        F642   1.358       .  S
C645        C646   1.404       .  A
C645        C650   1.397       .  A
C645        F663   1.358       .  S
C646        C647   1.405       .  A
C646        C651   1.481       .  S
C647        C648   1.402       .  A
C647        F652   1.358       .  S
C648        C649   1.409       .  A
C648        F664   1.357       .  S
C649        C650   1.408       .  A
C650        F653   1.358       .  S
C651        C654   1.405       .  A
C651        C658   1.405       .  A
C654        C655   1.397       .  A
C654        F659   1.358       .  S
C655        C656   1.407       .  A
C655        F661   1.357       .  S
C656        C657   1.410       .  A
C657        C658   1.402       .  A
C657        F660   1.358       .  S
C658        F662   1.358       .  S
C665        C666   1.404       .  A
C665        C670   1.394       .  A
C665        F683   1.358       .  S
C666        C667   1.406       .  A
C666        C671   1.481       .  S
C667        C668   1.404       .  A
C667        F672   1.358       .  S
C668        C669   1.408       .  A
C668        F684   1.357       .  S
C669        C670   1.406       .  A
C670        F673   1.358       .  S
C671        C674   1.405       .  A
C671        C678   1.404       .  A
C674        C675   1.404       .  A
C674        F679   1.357       .  S
C675        C676   1.410       .  A
C675        F681   1.357       .  S
C676        C677   1.409       .  A
C677        C678   1.395       .  A
C677        F680   1.357       .  S
C678        F682   1.358       .  S
C685        C686   1.406       .  A
C685        C690   1.400       .  A
C685        F703   1.358       .  S
C686        C687   1.406       .  A
C686        C691   1.485       .  S
C687        C688   1.399       .  A
C687        F692   1.358       .  S
C688        C689   1.407       .  A
C688        F704   1.357       .  S
C689        C690   1.409       .  A
C690        F693   1.358       .  S
C691        C694   1.406       .  A
C691        C698   1.407       .  A
C694        C695   1.398       .  A
C694        F699   1.358       .  S
C695        C696   1.408       .  A
C695        F701   1.358       .  S
C696        C697   1.408       .  A
C697        C698   1.401       .  A
C697        F700   1.357       .  S
C698        F702   1.358       .  S
C705        C706   1.406       .  A
C705        C710   1.395       .  A
C705        F723   1.359       .  S
C706        C707   1.404       .  A
C706        C711   1.479       .  S
C707        C708   1.399       .  A
C707        F712   1.358       .  S
C708        C709   1.408       .  A
C708        F724   1.357       .  S
C709        C710   1.408       .  A
C710        F713   1.358       .  S
C711        C714   1.405       .  A
C711        C718   1.406       .  A
C714        C715   1.395       .  A
C714        F719   1.358       .  S
C715        C716   1.407       .  A
C715        F721   1.357       .  S
C716        C717   1.407       .  A
C717        C718   1.398       .  A
C717        F720   1.358       .  S
C718        F722   1.358       .  S
C725        C726   1.404       .  A
C725        C730   1.394       .  A
C725        F743   1.358       .  S
C726        C727   1.405       .  A
C726        C731   1.480       .  S
C727        C728   1.403       .  A
C727        F732   1.358       .  S
C728        C729   1.408       .  A
C728        F744   1.358       .  S
C729        C730   1.407       .  A
C730        F733   1.357       .  S
C731        C734   1.404       .  A
C731        C738   1.405       .  A
C734        C735   1.394       .  A
C734        F739   1.358       .  S
C735        C736   1.406       .  A
C735        F741   1.358       .  S
C736        C737   1.409       .  A
C737        C738   1.402       .  A
C737        F740   1.357       .  S
C738        F742   1.358       .  S
C745        C746   1.402       .  A
C745        C750   1.397       .  A
C745        F763   1.358       .  S
C746        C747   1.403       .  A
C746        C751   1.478       .  S
C747        C748   1.400       .  A
C747        F752   1.358       .  S
C748        C749   1.412       .  A
C748        F764   1.357       .  S
C749        C750   1.411       .  A
C750        F753   1.357       .  S
C751        C754   1.403       .  A
C751        C758   1.402       .  A
C754        C755   1.399       .  A
C754        F759   1.358       .  S
C755        C756   1.410       .  A
C755        F761   1.357       .  S
C756        C757   1.411       .  A
C757        C758   1.399       .  A
C757        F760   1.357       .  S
C758        F762   1.358       .  S
C765        C766   1.407       .  A
C765        C770   1.400       .  A
C765        F783   1.358       .  S
C766        C767   1.407       .  A
C766        C771   1.489       .  S
C767        C768   1.401       .  A
C767        F772   1.358       .  S
C768        C769   1.408       .  A
C768        F784   1.357       .  S
C769        C770   1.408       .  A
C770        F773   1.358       .  S
C771        C774   1.408       .  A
C771        C778   1.407       .  A
C774        C775   1.403       .  A
C774        F779   1.358       .  S
C775        C776   1.408       .  A
C775        F781   1.357       .  S
C776        C777   1.407   1_545  A
C777        C778   1.398   1_565  A
C777        F780   1.358       .  S
C778        F782   1.358   1_545  S
C785        C786   1.404       .  A
C785        C790   1.398       .  A
C785        F803   1.358       .  S
C786        C787   1.404       .  A
C786        C791   1.478       .  S
C787        C788   1.400       .  A
C787        F792   1.358       .  S
C788        C789   1.408       .  A
C788        F804   1.357       .  S
C789        C790   1.407       .  A
C790        F793   1.358       .  S
C791        C794   1.404       .  A
C791        C798   1.405       .  A
C794        C795   1.398       .  A
C794        F799   1.358       .  S
C795        C796   1.406       .  A
C795        F801   1.358       .  S
C796        C797   1.406       .  A
C797        C798   1.400       .  A
C797        F800   1.358       .  S
C798        F802   1.358       .  S
C805        C806   1.403       .  A
C805        C810   1.393       .  A
C805        F823   1.358       .  S
C806        C807   1.406       .  A
C806        C811   1.478       .  S
C807        C808   1.403       .  A
C807        F812   1.358       .  S
C808        C809   1.408       .  A
C808        F824   1.357       .  S
C809        C810   1.407       .  A
C810        F813   1.358       .  S
C811        C814   1.403       .  A
C811        C818   1.403       .  A
C814        C815   1.401       .  A
C814        F819   1.358       .  S
C815        C816   1.411       .  A
C815        F821   1.357       .  S
C816        C817   1.411       .  A
C817        C818   1.394       .  A
C817        F820   1.357       .  S
C818        F822   1.359       .  S
C825        C826   1.405       .  A
C825        C830   1.402       .  A
C825        F843   1.358       .  S
C826        C827   1.405       .  A
C826        C831   1.483       .  S
C827        C828   1.394       .  A
C827        F832   1.359       .  S
C828        C829   1.409       .  A
C828        F844   1.357       .  S
C829        C830   1.411       .  A
C830        F833   1.356       .  S
C831        C834   1.408       .  A
C831        C838   1.405       .  A
C834        C835   1.401       .  A
C834        F839   1.358       .  S
C835        C836   1.408       .  A
C835        F841   1.358       .  S
C836        C837   1.405       .  A
C837        C838   1.395       .  A
C837        F840   1.358       .  S
C838        F842   1.358       .  S
C845        C846   1.405       .  A
C845        C850   1.397       .  A
C845        F863   1.358       .  S
C846        C847   1.406       .  A
C846        C851   1.483       .  S
C847        C848   1.400       .  A
C847        F852   1.358       .  S
C848        C849   1.409       .  A
C848        F864   1.357   1_565  S
C849        C850   1.408       .  A
C850        F853   1.357       .  S
C851        C854   1.406       .  A
C851        C858   1.406       .  A
C854        C855   1.401       .  A
C854        F859   1.358       .  S
C855        C856   1.409       .  A
C855        F861   1.358       .  S
C856        C857   1.406       .  A
C857        C858   1.397       .  A
C857        F860   1.357   1_565  S
C858        F862   1.358   1_565  S
