geometry optimzed in LAMMPS
_audit_creation_date              2020-11-30 
_audit_creation_method            'lammps2cif' 
_symmetry_space_group_name_H-M    'P1' 
_symmetry_Int_Tables_number       1 
_symmetry_cell_setting            triclinic 
loop_ 
_symmetry_equiv_pos_as_xyz 
  x,y,z 
_cell_length_a                    35.15896133 
_cell_length_b                    34.501484393843626 
_cell_length_c                    34.950418053695664 
_cell_angle_alpha                 90.27029520295049 
_cell_angle_beta                  90.34025992500473 
_cell_angle_gamma                 90.15148283624421 
loop_ 
_atom_site_label 
_atom_site_type_symbol 
_atom_site_fract_x 
_atom_site_fract_y 
_atom_site_fract_z 
_atom_site_charge 
O1          O  0.53478909  0.44250148  0.42433710    -0.77900
C2          C  0.45205569  0.54766141  0.42506957     0.83100
O3          O  0.54751449  0.56631517  0.47998099    -0.79000
O4          O  0.45059743  0.56402217  0.51923667    -0.80500
O5          O  0.44880301  0.42091778  0.52965261    -0.80300
O6          O  0.54247618  0.41385492  0.48086668    -0.78900
Zn7        Zn  0.51731828  0.49410679  0.44323306     1.55700
O8          O  0.42298539  0.47855754  0.54137394    -0.80300
Cd9        Cd  0.49977802  0.44117716  0.51140982     1.59700
Cd10       Cd  0.52994886  0.52733802  0.52504873     1.59600
O11         O  0.52220678  0.44802185  0.56274780    -0.80300
O12         O  0.49870121  0.49289535  0.49278649    -1.90800
Cd13       Cd  0.44768752  0.51091354  0.49734599     1.59900
O14         O  0.56935596  0.48389771  0.54364702    -0.80300
O15         O  0.42873333  0.52890547  0.44595346    -0.78900
C16         C  0.56089861  0.55437929  0.44778580     0.83600
C17         C  0.55346549  0.42036424  0.44688156     0.83300
O18         O  0.48544674  0.53535635  0.41835812    -0.77900
C19         C  0.42843954  0.44320264  0.55032838     0.84100
O20         O  0.56648987  0.51874296  0.44368727    -0.78000
C21         C  0.55706632  0.45145593  0.55669566     0.84200
C22         C  0.45533870  0.56040076  0.55447065     0.84500
O23         O  0.48742025  0.54678292  0.56596755    -0.80400
O24         O  0.45006539  0.17103221  0.20738085    -0.77900
C25         C  0.55264505  0.16276088  0.29989161     0.83100
O26         O  0.45094671  0.23567213  0.31415742    -0.79000
O27         O  0.58319616  0.27117962  0.28033278    -0.80500
O28         O  0.52740159  0.28618815  0.16428584    -0.80300
O29         O  0.47098377  0.19975653  0.15595425    -0.78900
Zn30       Zn  0.49832924  0.18074798  0.24006797     1.55700
O31         O  0.57816046  0.28366755  0.20168142    -0.80300
Cd32       Cd  0.49548316  0.24336463  0.18687543     1.59700
Cd33       Cd  0.48691382  0.27142116  0.27532877     1.59600
O34         O  0.44602245  0.26896324  0.19212347    -0.80300
O35         O  0.51385493  0.23349686  0.23876215    -1.90800
Cd36       Cd  0.57426221  0.23026404  0.23826789     1.59900
O37         O  0.45889560  0.31224489  0.23667073    -0.80300
O38         O  0.57087515  0.19254517  0.28975106    -0.78900
C39         C  0.45164223  0.19886316  0.30810505     0.83600
C40         C  0.44391025  0.18315785  0.17370638     0.83300
O41         O  0.52909812  0.14663727  0.27662239    -0.77900
C42         C  0.55774998  0.30129441  0.17738509     0.84100
O43         O  0.47016636  0.18810004  0.28058954    -0.78000
C44         C  0.44529193  0.30335147  0.20347887     0.84200
C45         C  0.56917308  0.29614255  0.30193967     0.84500
O46         O  0.53290408  0.30113984  0.30414299    -0.80400
C47         C  0.79920661  0.80069767  0.77153238     0.80800
N48         N  0.76696830  0.81592744  0.78705243    -0.77500
C49         C  0.74943261  0.79838143  0.81711314     0.83300
N50         N  0.76520811  0.76593969  0.83248589    -0.77400
C51         C  0.79749179  0.75023671  0.81768714     0.83400
N52         N  0.81472411  0.76810674  0.78743137    -0.79100
C53         C  0.75951454  0.94739020  0.95297796     0.80800
N54         N  0.77418671  0.97962233  0.93564494    -0.77500
C55         C  0.80649996  0.99704089  0.94945497     0.83300
N56         N  0.82482015  0.98078367  0.98005403    -0.77400
C57         C  0.81075541  0.94853576  0.99762515     0.83400
N58         N  0.77836271  0.93175783  0.98352948    -0.79100
C59         C  0.94703265  0.79975909  0.00101475     0.80800
N60         N  0.97746558  0.81420701  0.98157056    -0.77500
C61         C  0.98988322  0.79712726  0.94868114     0.83300
N62         N  0.97067619  0.76543226  0.93466426    -0.77400
C63         C  0.94008534  0.75034885  0.95370762     0.83400
N64         N  0.92809787  0.76827833  0.98646437    -0.79100
C65         C  0.94435236  0.94218983  0.76378919     0.80800
N66         N  0.97659704  0.92427534  0.77633404    -0.77500
C67         C  0.99704830  0.93880001  0.80651020     0.83300
N68         N  0.98416217  0.97130832  0.82488496    -0.77400
C69         C  0.95203756  0.98990013  0.81253718     0.83400
N70         N  0.93197852  0.97460770  0.78244692    -0.79100
N71         N  0.03476202  0.86400056  0.87520856    -0.36000
N72         N  0.09105866  0.81866201  0.91778460    -0.56600
N73         N  0.15153956  0.85626101  0.87508241    -0.36000
N74         N  0.09565063  0.89745121  0.82872677    -0.56600
C75         C  0.01143181  0.83849784  0.89325220     0.27600
C76         C  0.01398336  0.88293643  0.84841200     0.27600
C77         C  0.17023623  0.82792185  0.89318117     0.27600
C78         C  0.17140905  0.86404074  0.84354341     0.27600
C79         C  0.05939113  0.81531143  0.93980725     0.36200
C80         C  0.12165617  0.81783543  0.94173906     0.36200
C81         C  0.06669653  0.92141535  0.81852003     0.36200
C82         C  0.12883658  0.91432270  0.81769477     0.36200
C83         C  0.97518212  0.84139291  0.87774550    -0.21300
C84         C  0.97671261  0.86944454  0.84976189    -0.21300
C85         C  0.20166169  0.81627948  0.87248043    -0.21300
C86         C  0.20254648  0.83950707  0.84081525    -0.21300
C87         C  0.06975584  0.81195674  0.97780190    -0.22300
C88         C  0.10879558  0.81500180  0.97898430    -0.22300
C89         C  0.08159607  0.95331435  0.79972070    -0.22300
C90         C  0.12081395  0.94896442  0.79940399    -0.22300
C91         C  0.02130714  0.81596550  0.92587853    -0.17700
C92         C  0.02711223  0.91393493  0.82489471    -0.17700
C93         C  0.16581952  0.89755562  0.82260151    -0.17700
C94         C  0.16082775  0.81627684  0.92967664    -0.17700
H95         H  0.94986185  0.82600115  0.88654188     0.15200
H96         H  0.95273704  0.87918195  0.83291400     0.15200
H97         H  0.22228910  0.79426665  0.87971215     0.15200
H98         H  0.22438527  0.83918825  0.81916913     0.15200
H99         H  0.05119260  0.80994414  0.00228556     0.13500
H100        H  0.12577407  0.81682496  0.00442598     0.13500
H101        H  0.06588235  0.97730021  0.78763454     0.13500
H102        H  0.14100094  0.96882902  0.78680240     0.13500
H103        H  0.06277771  0.87017520  0.88245973     0.26800
H104        H  0.12914710  0.87249374  0.88616933     0.26800
N105        N  0.88179636  0.87711180  0.04093203    -0.36000
N106        N  0.85134249  0.93109525  0.09656455    -0.56600
N107        N  0.89985682  0.89514805  0.15367482    -0.36000
N108        N  0.93269043  0.84316424  0.09988446    -0.56600
C109        C  0.86207162  0.90135930  0.01741306     0.27600
C110        C  0.90490483  0.85487115  0.01890626     0.27600
C111        C  0.88850198  0.92774180  0.17082911     0.27600
C112        C  0.93072885  0.88316745  0.17272717     0.27600
C113        C  0.82669899  0.93798473  0.06747340     0.36200
C114        C  0.83443463  0.94276629  0.12935265     0.36200
C115        C  0.93735170  0.81706427  0.07120526     0.36200
C116        C  0.94305862  0.82596465  0.13332979     0.36200
C117        C  0.87228745  0.89364010  0.97997711    -0.21300
C118        C  0.89922015  0.86475917  0.98081233    -0.21300
C119        C  0.91306966  0.93775293  0.20036136    -0.21300
C120        C  0.94014837  0.90934854  0.20153818    -0.21300
C121        C  0.79432921  0.95565912  0.08163226    -0.22300
C122        C  0.79904144  0.95819111  0.12089821    -0.22300
C123        C  0.95206562  0.78311210  0.08641082    -0.22300
C124        C  0.95491605  0.78848494  0.12579982    -0.22300
C125        C  0.83365545  0.92875752  0.02847522    -0.17700
C126        C  0.92918219  0.82423509  0.03168521    -0.17700
C127        C  0.94374653  0.84540497  0.16962508    -0.17700
C128        C  0.85191395  0.94124789  0.16620011    -0.17700
H129        H  0.86070126  0.90649767  0.95449362     0.15200
H130        H  0.91233270  0.85189184  0.95587883     0.15200
H131        H  0.91026058  0.96123993  0.22068885     0.15200
H132        H  0.96227593  0.90700182  0.22295160     0.15200
H133        H  0.76974210  0.96518047  0.06547469     0.13500
H134        H  0.77940104  0.97127442  0.14064327     0.13500
H135        H  0.95929006  0.75697725  0.07086281     0.13500
H136        H  0.96530102  0.76758978  0.14632891     0.13500
H137        H  0.87853350  0.87441853  0.07021789     0.26800
H138        H  0.88365617  0.87873241  0.13447522     0.26800
N139        N  0.86890120  0.87207098  0.72652821    -0.36000
N140        N  0.90226936  0.91904271  0.66602475    -0.56600
N141        N  0.85388991  0.87907731  0.61143694    -0.36000
N142        N  0.81824146  0.83440133  0.67015022    -0.56600
C143        C  0.88987181  0.89749068  0.74788420     0.27600
C144        C  0.84525453  0.85255110  0.75040134     0.27600
C145        C  0.86556835  0.90999434  0.59176154     0.27600
C146        C  0.82300367  0.86559643  0.59316480     0.27600
C147        C  0.92636315  0.92890027  0.69487884     0.36200
C148        C  0.91911173  0.92907408  0.63267817     0.36200
C149        C  0.81044865  0.81235861  0.70124216     0.36200
C150        C  0.80628522  0.81454175  0.63852562     0.36200
C151        C  0.87969013  0.89356764  0.78594556    -0.21300
C152        C  0.85185928  0.86537710  0.78751448    -0.21300
C153        C  0.84112864  0.91743088  0.56151894    -0.21300
C154        C  0.81423872  0.88892650  0.56218704    -0.21300
C155        C  0.95828346  0.94676386  0.67985545    -0.22300
C156        C  0.95383501  0.94646130  0.64051822    -0.22300
C157        C  0.79203043  0.77881860  0.68957407    -0.22300
C158        C  0.78992550  0.77983128  0.65012810    -0.22300
C159        C  0.91933386  0.92261258  0.73445949    -0.17700
C160        C  0.81921679  0.82224390  0.74000652    -0.17700
C161        C  0.80871729  0.82884931  0.59993827    -0.17700
C162        C  0.90184076  0.92482811  0.59586321    -0.17700
H163        H  0.89138676  0.90902038  0.81027941     0.15200
H164        H  0.83858509  0.85504672  0.81327641     0.15200
H165        H  0.84343604  0.93948446  0.53980341     0.15200
H166        H  0.79251976  0.88500118  0.54065285     0.15200
H167        H  0.98231409  0.95859941  0.69553589     0.13500
H168        H  0.97319077  0.95903599  0.62030967     0.13500
H169        H  0.78176412  0.75562274  0.70755920     0.13500
H170        H  0.77693328  0.75756976  0.63268317     0.13500
H171        H  0.87172983  0.86702461  0.69748220     0.26800
H172        H  0.86946524  0.86452048  0.63234388     0.26800
N173        N  0.86647959  0.70694646  0.88780139    -0.36000
N174        N  0.82195826  0.64714231  0.84680367    -0.56600
N175        N  0.86660141  0.58766370  0.88507879    -0.36000
N176        N  0.90761926  0.64681935  0.93034506    -0.56600
C177        C  0.83769076  0.72804089  0.87277335     0.27600
C178        C  0.88246645  0.72809729  0.91650530     0.27600
C179        C  0.83719850  0.56688964  0.87090640     0.27600
C180        C  0.88280689  0.56652590  0.91301400     0.27600
C181        C  0.81552540  0.67935188  0.82532311     0.36200
C182        C  0.81721519  0.61569829  0.82354028     0.36200
C183        C  0.92967977  0.67912716  0.93552941     0.36200
C184        C  0.93119752  0.61547413  0.93065318     0.36200
C185        C  0.83503486  0.76282844  0.89258925    -0.21300
C186        C  0.86337372  0.76300219  0.92002905    -0.21300
C187        C  0.83365475  0.53258064  0.89108311    -0.21300
C188        C  0.86255914  0.53236116  0.91781464    -0.21300
C189        C  0.80606008  0.66868407  0.78846560    -0.22300
C190        C  0.80812162  0.62886847  0.78702012    -0.22300
C191        C  0.96708722  0.66862546  0.93958144    -0.22300
C192        C  0.96824064  0.62900349  0.93523882    -0.22300
C193        C  0.81706282  0.71816102  0.83910093    -0.17700
C194        C  0.91643153  0.71809241  0.93599618    -0.17700
C195        C  0.91881113  0.57533461  0.92823497    -0.17700
C196        C  0.81917635  0.57587933  0.83617303    -0.17700
H197        H  0.81524999  0.78601397  0.88750103     0.15200
H198        H  0.86965964  0.78657703  0.93959536     0.15200
H199        H  0.81337727  0.50941590  0.88647565     0.15200
H200        H  0.86826014  0.50906017  0.93754266     0.15200
H201        H  0.79951036  0.68763435  0.76474115     0.13500
H202        H  0.80372273  0.61247040  0.76129804     0.13500
H203        H  0.99122126  0.68788224  0.94244683     0.13500
H204        H  0.99412462  0.61329822  0.93227957     0.13500
H205        H  0.87680109  0.68097655  0.87678681     0.26800
H206        H  0.87814845  0.61260043  0.87300624     0.26800
N207        N  0.71251271  0.87232451  0.88792898    -0.36000
N208        N  0.65116262  0.82452596  0.85453929    -0.56600
N209        N  0.59542540  0.87142950  0.89579872    -0.36000
N210        N  0.65685966  0.91651768  0.93158480    -0.56600
C211        C  0.73355270  0.84788074  0.86621556     0.27600
C212        C  0.73686055  0.89491552  0.90865549     0.27600
C213        C  0.57395486  0.84098659  0.88476679     0.27600
C214        C  0.57619265  0.88889282  0.92415084     0.27600
C215        C  0.68045649  0.81113912  0.83311872     0.36200
C216        C  0.61845492  0.81043544  0.83894527     0.36200
C217        C  0.68888167  0.93503157  0.94410018     0.36200
C218        C  0.62645348  0.93454175  0.94748399     0.36200
C219        C  0.77177735  0.85532189  0.87324456    -0.21300
C220        C  0.77389180  0.88460334  0.89989958    -0.21300
C221        C  0.54117099  0.83872152  0.90640002    -0.21300
C222        C  0.54263021  0.86901759  0.93152551    -0.21300
C223        C  0.66622011  0.78759060  0.80411799    -0.22300
C224        C  0.62707397  0.78734603  0.80770976    -0.22300
C225        C  0.67893251  0.96473597  0.96860718    -0.22300
C226        C  0.63989937  0.96434002  0.97096054    -0.22300
C227        C  0.71977918  0.81980147  0.83931688    -0.17700
C228        C  0.72711154  0.92524518  0.93460801    -0.17700
C229        C  0.58719652  0.92302402  0.94275678    -0.17700
C230        C  0.58118557  0.81739325  0.85334580    -0.17700
H231        H  0.79589873  0.84159260  0.86007727     0.15200
H232        H  0.79992824  0.89718770  0.91105488     0.15200
H233        H  0.51844497  0.81759021  0.90400342     0.15200
H234        H  0.52132133  0.87560933  0.95279637     0.15200
H235        H  0.68232374  0.77243836  0.78242665     0.13500
H236        H  0.60728029  0.77152837  0.78975835     0.13500
H237        H  0.69784868  0.98425233  0.98391449     0.13500
H238        H  0.62418011  0.98293158  0.98980963     0.13500
H239        H  0.68325726  0.87391914  0.88784497     0.26800
H240        H  0.61998518  0.88149551  0.88271598     0.26800
N241        N  0.88112982  0.03614508  0.88083500    -0.36000
N242        N  0.83718085  0.09852185  0.91891050    -0.56600
N243        N  0.88971621  0.15273073  0.88912968    -0.36000
N244        N  0.93673044  0.09116295  0.85340742    -0.56600
C245        C  0.85777813  0.01444029  0.90311838     0.27600
C246        C  0.90593263  0.01172380  0.86300701     0.27600
C247        C  0.87214767  0.17379981  0.91618300     0.27600
C248        C  0.92460242  0.16803672  0.88545175     0.27600
C249        C  0.81576036  0.06768590  0.92963857     0.36200
C250        C  0.81760942  0.13161385  0.92698683     0.36200
C251        C  0.94636981  0.06111558  0.83038979     0.36200
C252        C  0.95159583  0.12374056  0.83802109     0.36200
C253        C  0.86760695  0.97574811  0.89851991    -0.21300
C254        C  0.89778837  0.97403864  0.87368656    -0.21300
C255        C  0.89693922  0.20194923  0.93054695    -0.21300
C256        C  0.93011459  0.19831019  0.91078558    -0.21300
C257        C  0.78226531  0.08140392  0.94558068    -0.22300
C258        C  0.78329219  0.12166906  0.94339683    -0.22300
C259        C  0.96883637  0.07458287  0.80073398    -0.22300
C260        C  0.97180826  0.11439745  0.80536867    -0.22300
C261        C  0.82682687  0.02770890  0.92642507    -0.17700
C262        C  0.93474888  0.02201007  0.83612173    -0.17700
C263        C  0.94725996  0.16129889  0.85407332    -0.17700
C264        C  0.83328588  0.16999740  0.92423956    -0.17700
H265        H  0.85340132  0.95097387  0.91047802     0.15200
H266        H  0.91192215  0.94785890  0.86437111     0.15200
H267        H  0.89249396  0.22353971  0.95237812     0.15200
H268        H  0.95482605  0.21698407  0.91324131     0.15200
H269        H  0.75952413  0.06424011  0.95763894     0.13500
H270        H  0.76237225  0.14146750  0.95456031     0.13500
H271        H  0.98112163  0.05764980  0.77780059     0.13500
H272        H  0.98718359  0.13410702  0.78705379     0.13500
H273        H  0.87938761  0.06580611  0.87709759     0.26800
H274        H  0.87709718  0.13240341  0.87083031     0.26800
O275        O  0.27448748  0.59073397  0.19809865    -0.77900
C276        C  0.20145325  0.57432943  0.29820398     0.83100
O277        O  0.30800470  0.52111393  0.30851759    -0.79000
O278        O  0.17909942  0.46602083  0.27684740    -0.80500
O279        O  0.22998218  0.45274727  0.17636225    -0.80300
O280        O  0.29605167  0.54207335  0.16374856    -0.78900
Zn281      Zn  0.26510726  0.56092108  0.24531763     1.55700
O282        O  0.17842796  0.48490373  0.19261732    -0.80300
Cd283      Cd  0.26550155  0.49940728  0.19092966     1.59700
Cd284      Cd  0.27427578  0.47716738  0.27905318     1.59600
O285        O  0.31438938  0.47519846  0.20110464    -0.80300
O286        O  0.24991928  0.51112449  0.24083593    -1.90800
Cd287      Cd  0.19621362  0.50851390  0.24306874     1.59900
O288        O  0.29558443  0.43138538  0.24071492    -0.80300
O289        O  0.17926660  0.55542752  0.27560648    -0.78900
C290        C  0.31988192  0.55260398  0.29278704     0.83600
C291        C  0.30048797  0.57593741  0.17726806     0.83300
O292        O  0.23633154  0.57966247  0.29080121    -0.77900
C293        C  0.19440048  0.45310753  0.18269055     0.84100
O294        O  0.31675538  0.55669049  0.25762541    -0.78000
C295        C  0.30903020  0.44034256  0.20772825     0.84200
C296        C  0.19310620  0.45418561  0.30789635     0.84500
O297        O  0.22884610  0.45793163  0.31526944    -0.80400
O298        O  0.28711231  0.16781257  0.54584646    -0.77900
C299        C  0.18505125  0.16720058  0.45378215     0.83100
O300        O  0.30382117  0.22897755  0.43522311    -0.79000
O301        O  0.19447016  0.26363292  0.43096875    -0.80500
O302        O  0.18788176  0.27123744  0.57230301    -0.80300
O303        O  0.28235315  0.22065721  0.58217125    -0.78900
Zn304      Zn  0.25200939  0.18255315  0.50305522     1.55700
O305        O  0.17350989  0.29169487  0.51411718    -0.80300
Cd306      Cd  0.23891751  0.25002189  0.55482582     1.59700
Cd307      Cd  0.27485565  0.26980857  0.47341577     1.59600
O308        O  0.25911832  0.30287304  0.55708082    -0.80300
O309        O  0.24145804  0.23468953  0.50193675    -1.90800
Cd310      Cd  0.19176041  0.24377110  0.48350245     1.59900
O311        O  0.30873825  0.29216387  0.52104239    -0.80300
O312        O  0.16531790  0.19451756  0.46805550    -0.78900
C313        C  0.30549959  0.19175563  0.43948544     0.83600
C314        C  0.29968078  0.18987549  0.57242395     0.83300
O315        O  0.21435345  0.15399639  0.47086881    -0.77900
C316        C  0.17458084  0.29720104  0.54987467     0.84100
O317        O  0.28825078  0.17534518  0.46603847    -0.78000
C318        C  0.29424661  0.30412707  0.55280270     0.84200
C319        C  0.20049500  0.29913310  0.43421680     0.84500
O320        O  0.23221476  0.31031992  0.44962590    -0.80400
O321        O  0.53771763  0.76698234  0.83711108    -0.77900
C322        C  0.42399886  0.69598610  0.80938755     0.83100
O323        O  0.56842842  0.70447067  0.76992354    -0.79000
O324        O  0.45028285  0.72419488  0.69024102    -0.80500
O325        O  0.48332868  0.82890822  0.71528973    -0.80300
O326        O  0.52745322  0.82532632  0.81260111    -0.78900
Zn327      Zn  0.49801016  0.73248986  0.81088413     1.55700
O328        O  0.42710643  0.79910999  0.71719097    -0.80300
Cd329      Cd  0.51137385  0.80408314  0.76082302     1.59700
Cd330      Cd  0.52788022  0.72077351  0.72742968     1.59600
O331        O  0.56332220  0.80297098  0.73997229    -0.80300
O332        O  0.49467475  0.75107601  0.76161533    -1.90800
Cd333      Cd  0.44433385  0.74832881  0.74156149     1.59900
O334        O  0.54620486  0.76769059  0.69078825    -0.80300
O335        O  0.41718503  0.70596547  0.77480895    -0.78900
C336        C  0.55794032  0.69160552  0.80258173     0.83600
C337        C  0.54705367  0.80237361  0.83330473     0.83300
O338        O  0.44775120  0.71444890  0.83056863    -0.77900
C339        C  0.45115770  0.82103493  0.70044697     0.84100
O340        O  0.52349082  0.68326878  0.80700449    -0.78000
C341        C  0.55955591  0.79977472  0.70445877     0.84200
C342        C  0.45515625  0.68855762  0.69320361     0.84500
O343        O  0.48731659  0.67716157  0.70668047    -0.80400
O344        O  0.16392381  0.69553248  0.98256408    -0.77900
C345        C  0.16251651  0.79680040  0.07274363     0.83100
O346        O  0.22673445  0.79957322  0.95123474    -0.79000
O347        O  0.25900822  0.81796316  0.06150796    -0.80500
O348        O  0.29692538  0.69972451  0.04452690    -0.80300
O349        O  0.22049799  0.69646559  0.95838395    -0.78900
Zn350      Zn  0.18141269  0.73924149  0.01488845     1.55700
O351        O  0.28346024  0.73770609  0.09418348    -0.80300
Cd352      Cd  0.23635467  0.68314220  0.02294206     1.59700
Cd353      Cd  0.26939719  0.76740430  0.98535534     1.59600
O354        O  0.27508385  0.66623360  0.98006706    -0.80300
O355        O  0.23351912  0.74204209  0.02079564    -1.90800
Cd356      Cd  0.23850777  0.76556653  0.06990877     1.59900
O357        O  0.30165349  0.71996319  0.95767256    -0.80300
O358        O  0.19221953  0.79086295  0.09250675    -0.78900
C359        C  0.18997643  0.79643151  0.95385943     0.83600
C360        C  0.18483378  0.69544526  0.95277750     0.83300
O361        O  0.15022374  0.77144908  0.04919997    -0.77900
C362        C  0.30697081  0.71724565  0.07528919     0.84100
O363        O  0.17525004  0.77401959  0.97719208    -0.78000
C364        C  0.29944585  0.68244745  0.95929011     0.84200
C365        C  0.29397961  0.81601821  0.05676209     0.84500
O366        O  0.30626450  0.79859209  0.02655202    -0.80400
O367        O  0.02278074  0.47074820  0.08292517    -0.77900
C368        C  0.94669402  0.57877555  0.05633437     0.83100
O369        O  0.95948739  0.43897332  0.02742470    -0.79000
O370        O  0.98022646  0.54866975  0.93502166    -0.80500
O371        O  0.07878219  0.54750609  0.96225675    -0.80300
O372        O  0.07677892  0.47288721  0.04986065    -0.78900
Zn373      Zn  0.99012412  0.51220553  0.05790339     1.55700
O374        O  0.04159016  0.59657094  0.97645032    -0.80300
Cd375      Cd  0.06140218  0.51218672  0.00762015     1.59700
Cd376      Cd  0.97878303  0.47307152  0.98007291     1.59600
O377        O  0.07446155  0.47102829  0.97336533    -0.80300
O378        O  0.00691125  0.51423047  0.00796372    -1.90800
Cd379      Cd  0.99473569  0.56434010  0.98781121     1.59900
O380        O  0.02307350  0.44227280  0.94913252    -0.80300
O381        O  0.94825890  0.58286496  0.02008769    -0.78900
C382        C  0.94513746  0.45259757  0.05836741     0.83600
C383        C  0.05461358  0.45600158  0.07349971     0.83300
O384        O  0.97530187  0.56484070  0.07443671    -0.77900
C385        C  0.06403067  0.57984620  0.95316342     0.84100
O386        O  0.94039000  0.48854322  0.06102700    -0.78000
C387        C  0.05962271  0.44570557  0.95243480     0.84200
C388        C  0.94548841  0.54220129  0.93753654     0.84500
O389        O  0.93558515  0.50957517  0.95226982    -0.80400
O390        O  0.32274491  0.03870033  0.78644071    -0.77900
C391        C  0.31309756  0.93391743  0.70117378     0.83100
O392        O  0.27044267  0.06821578  0.71008976    -0.79000
O393        O  0.18993615  0.94378988  0.72424224    -0.80500
O394        O  0.20755297  0.95112559  0.82835814    -0.80300
O395        O  0.28812516  0.02368569  0.83756843    -0.78900
Zn396      Zn  0.30473185  0.99761933  0.74801450     1.55700
O397        O  0.22454573  0.90441998  0.78888761    -0.80300
Cd398      Cd  0.24674601  0.99153708  0.81198613     1.59700
Cd399      Cd  0.22436837  0.02899860  0.72646971     1.59600
O400        O  0.20961373  0.03039797  0.82076305    -0.80300
O401        O  0.25340308  0.99188136  0.75838356    -1.90800
Cd402      Cd  0.24135245  0.93997877  0.74569461     1.59900
O403        O  0.18626857  0.05758657  0.76859104    -0.80300
O404        O  0.27768197  0.92674217  0.70082619    -0.78900
C405        C  0.30394523  0.05682686  0.70051114     0.83600
C406        C  0.31128491  0.04609533  0.82034694     0.83300
O407        O  0.32857565  0.94808576  0.73148658    -0.77900
C408        C  0.20093596  0.91873233  0.81245287     0.84100
O409        O  0.30994464  0.02122715  0.69881749    -0.78000
C410        C  0.18777571  0.05421035  0.80555478     0.84200
C411        C  0.19489170  0.95147583  0.68983397     0.84500
O412        O  0.20589749  0.98630097  0.68159096    -0.80400
O413        O  0.67166566  0.73428577  0.46166417    -0.77900
C414        C  0.68905892  0.79342624  0.57859368     0.83100
O415        O  0.73819339  0.79902403  0.44463274    -0.79000
O416        O  0.80666569  0.76780784  0.57040832    -0.80500
O417        O  0.79058544  0.66619093  0.52121842    -0.80300
O418        O  0.69521269  0.67474221  0.46793836    -0.78900
Zn419      Zn  0.69558723  0.76309094  0.50669141     1.55700
O420        O  0.78856944  0.69250273  0.57956896    -0.80300
Cd421      Cd  0.74550817  0.69236004  0.49231559     1.59700
Cd422      Cd  0.77825800  0.77715276  0.48576211     1.59600
O423        O  0.77015920  0.69995895  0.44235207    -0.80300
O424        O  0.74341724  0.74311020  0.51374076    -1.90800
Cd425      Cd  0.75724639  0.74140238  0.56724479     1.59900
O426        O  0.81719571  0.73302952  0.46694856    -0.80300
O427        O  0.72258212  0.78568675  0.59068623    -0.78900
C428        C  0.70621108  0.81282349  0.45575932     0.83600
C429        C  0.67515876  0.69956078  0.44974983     0.83300
O430        O  0.67197705  0.76958335  0.55643368    -0.77900
C431        C  0.80574441  0.67273096  0.55380768     0.84100
O432        O  0.70125180  0.81648605  0.49104957    -0.78000
C433        C  0.80482956  0.70201358  0.45045606     0.84200
C434        C  0.80268046  0.80331518  0.56571971     0.84500
O435        O  0.79358542  0.81548181  0.53218973    -0.80400
O436        O  0.04897948  0.75929489  0.33464899    -0.77900
C437        C  0.93156566  0.71142149  0.33111521     0.83100
O438        O  0.05721129  0.69530580  0.26639678    -0.79000
O439        O  0.92117515  0.72308929  0.22775226    -0.80500
O440        O  0.97967448  0.83780948  0.22735743    -0.80300
O441        O  0.03767305  0.82062863  0.31814627    -0.78900
Zn442      Zn  0.00187814  0.73379625  0.31459325     1.55700
O443        O  0.92988772  0.79899508  0.21800655    -0.80300
Cd444      Cd  0.01140803  0.80739970  0.26764745     1.59700
Cd445      Cd  0.01642827  0.72450269  0.22808494     1.59600
O446        O  0.05930509  0.80619924  0.23839540    -0.80300
O447        O  0.99129068  0.75544103  0.26789770    -1.90800
Cd448      Cd  0.93738065  0.76148373  0.26357463     1.59900
O449        O  0.03521837  0.77113625  0.19209910    -0.80300
O450        O  0.91444981  0.72120118  0.30058343    -0.78900
C451        C  0.04671972  0.68097429  0.29876939     0.83600
C452        C  0.05845448  0.79479940  0.33403378     0.83300
O453        O  0.95654816  0.73379987  0.34557706    -0.77900
C454        C  0.95204675  0.82577145  0.20655810     0.84100
O455        O  0.01178058  0.67963663  0.30507694    -0.78000
C456        C  0.05036547  0.80301826  0.20375421     0.84200
C457        C  0.93375276  0.69955408  0.20390256     0.84500
O458        O  0.96989317  0.69414844  0.19991557    -0.80400
O459        O  0.58168182  0.03073216  0.96720104    -0.77900
C460        C  0.55580722  0.97656017  0.08665388     0.83100
O461        O  0.52382380  0.95207647  0.94948435    -0.79000
O462        O  0.45389102  0.97794450  0.07610672    -0.80500
O463        O  0.45369956  0.09343030  0.01231850    -0.80300
O464        O  0.55413730  0.08814377  0.97098885    -0.78900
Zn465      Zn  0.55840613  0.00306462  0.01240351     1.55700
O466        O  0.44288533  0.05930534  0.06509581    -0.80300
Cd467      Cd  0.50320426  0.06630145  0.99073962     1.59700
Cd468      Cd  0.47799347  0.97715420  0.98302667     1.59600
O469        O  0.48609451  0.05323549  0.93844817    -0.80300
O470        O  0.50710446  0.01517254  0.01371212    -1.90800
Cd471      Cd  0.48772920  0.02097286  0.06447611     1.59900
O472        O  0.43877120  0.01754931  0.95601115    -0.80300
O473        O  0.52747047  0.99563975  0.09967267    -0.78900
C474        C  0.55665376  0.94349114  0.96384679     0.83600
C475        C  0.57594992  0.06429901  0.95379432     0.83300
O476        O  0.57867171  0.99282374  0.06345124    -0.77900
C477        C  0.43186892  0.08328571  0.03973050     0.84100
O478        O  0.56377858  0.95119053  0.99796148    -0.78000
C479        C  0.45099498  0.04927963  0.94120642     0.84200
C480        C  0.44614835  0.94573482  0.06117253     0.84500
O481        O  0.45349485  0.93859650  0.02564839    -0.80400
C482        C  0.30465524  0.80946000  0.26149316     0.80800
N483        N  0.27330516  0.82351995  0.27976097    -0.77500
C484        C  0.25907048  0.80504907  0.31109138     0.83300
N485        N  0.27731685  0.77310995  0.32484880    -0.77400
C486        C  0.30878746  0.75887621  0.30709523     0.83400
N487        N  0.32252947  0.77752248  0.27575028    -0.79100
N488        N  0.38161769  0.71412436  0.37437766    -0.36000
N489        N  0.34191423  0.65574384  0.32720216    -0.56600
N490        N  0.38712796  0.59549736  0.36197446    -0.36000
N491        N  0.42956329  0.65363700  0.40702557    -0.56600
C492        C  0.35953048  0.73803173  0.35296516     0.27600
C493        C  0.40436777  0.73644837  0.39711112     0.27600
C494        C  0.37169705  0.57534485  0.33284264     0.27600
C495        C  0.41774738  0.57525171  0.37289788     0.27600
C496        C  0.32369104  0.68786175  0.31425713     0.36200
C497        C  0.32622664  0.62443874  0.30932908     0.36200
C498        C  0.44185906  0.68351593  0.42932699     0.36200
C499        C  0.44429741  0.62048527  0.42156290     0.36200
C500        C  0.36824663  0.77612558  0.36244701    -0.21300
C501        C  0.39601912  0.77508767  0.39029852    -0.21300
C502        C  0.39289146  0.54243708  0.32487499    -0.21300
C503        C  0.42220698  0.54239711  0.35037222    -0.21300
C504        C  0.29661095  0.67706531  0.28746254    -0.22300
C505        C  0.29847720  0.63740894  0.28413466    -0.22300
C506        C  0.46555451  0.66921766  0.45778944    -0.22300
C507        C  0.46683413  0.62938824  0.45303821    -0.22300
C508        C  0.33138989  0.72694753  0.32536811    -0.17700
C509        C  0.43215150  0.72339381  0.42421019    -0.17700
C510        C  0.43879010  0.58272661  0.40562494    -0.17700
C511        C  0.33825346  0.58489657  0.31404771    -0.17700
H512        H  0.35587245  0.80215771  0.35064526     0.15200
H513        H  0.40815724  0.80012603  0.40433713     0.15200
H514        H  0.38767767  0.52062043  0.30308327     0.15200
H515        H  0.44388163  0.52028442  0.35271654     0.15200
H516        H  0.27806556  0.69585425  0.27114387     0.13500
H517        H  0.28250833  0.62103188  0.26355203     0.13500
H518        H  0.48019192  0.68570512  0.47983027     0.13500
H519        H  0.48319410  0.60943389  0.47020039     0.13500
H520        H  0.38077189  0.68427922  0.37385798     0.26800
H521        H  0.37562390  0.61943357  0.37582199     0.26800
C522        C  0.50518049  0.94188424  0.30461724     0.80800
N523        N  0.48984477  0.97303996  0.32351737    -0.77500
C524        C  0.45719910  0.99038001  0.31057923     0.83300
N525        N  0.43913257  0.97502970  0.27919456    -0.77400
C526        C  0.45358564  0.94366134  0.26012070     0.83400
N527        N  0.48638161  0.92712327  0.27337090    -0.79100
N528        N  0.54575298  0.87047171  0.37586928    -0.36000
N529        N  0.60345339  0.82654220  0.41951130    -0.56600
N530        N  0.66175528  0.85946794  0.37260937    -0.36000
N531        N  0.60405881  0.89946513  0.32508612    -0.56600
C532        C  0.52299477  0.84556443  0.39524066     0.27600
C533        C  0.52391256  0.88867162  0.34923737     0.27600
C534        C  0.68121671  0.83193083  0.39159965     0.27600
C535        C  0.68073342  0.86602011  0.34001964     0.27600
C536        C  0.57183004  0.81850386  0.44024649     0.36200
C537        C  0.63432410  0.81910720  0.44197840     0.36200
C538        C  0.57535252  0.92364616  0.31452811     0.36200
C539        C  0.63696715  0.91414585  0.31095865     0.36200
C540        C  0.48627596  0.84841101  0.38084204    -0.21300
C541        C  0.48675412  0.87554413  0.35217777    -0.21300
C542        C  0.71228709  0.82006838  0.37023631    -0.21300
C543        C  0.71200738  0.84184380  0.33757243    -0.21300
C544        C  0.58240555  0.80482618  0.47578524    -0.22300
C545        C  0.62154725  0.80582453  0.47716992    -0.22300
C546        C  0.59009709  0.95353622  0.29278922    -0.22300
C547        C  0.62902943  0.94766952  0.29073124    -0.22300
C548        C  0.53356271  0.82233419  0.42723361    -0.17700
C549        C  0.53605907  0.91804425  0.32349078    -0.17700
C550        C  0.67374932  0.89709432  0.31564368    -0.17700
C551        C  0.67326445  0.82125868  0.42931563    -0.17700
H552        H  0.46133620  0.83331390  0.39058688     0.15200
H553        H  0.46228866  0.88466552  0.33561697     0.15200
H554        H  0.73321153  0.79825963  0.37695568     0.15200
H555        H  0.73300453  0.84088063  0.31505375     0.15200
H556        H  0.56387553  0.79556233  0.49863334     0.13500
H557        H  0.63785329  0.79657954  0.50141615     0.13500
H558        H  0.57448797  0.97724449  0.28005411     0.13500
H559        H  0.64920731  0.96606442  0.27617747     0.13500
H560        H  0.57412212  0.87625199  0.38182422     0.26800
H561        H  0.63934431  0.87591238  0.38323625     0.26800
N562        N  0.37732042  0.87668033  0.21955121    -0.36000
N563        N  0.41898052  0.91465841  0.15953808    -0.56600
N564        N  0.37716060  0.87090282  0.09779627    -0.36000
N565        N  0.33033702  0.83879609  0.15913518    -0.56600
C566        C  0.39755814  0.90204933  0.24147936     0.27600
C567        C  0.35041807  0.86052942  0.24185327     0.27600
C568        C  0.39638994  0.89652650  0.07618515     0.27600
C569        C  0.34801428  0.85765096  0.07610265     0.27600
C570        C  0.44128902  0.92415948  0.19045910     0.36200
C571        C  0.44051758  0.91976287  0.12781020     0.36200
C572        C  0.31308854  0.82476452  0.19120637     0.36200
C573        C  0.31032604  0.82556782  0.12807587     0.36200
C574        C  0.38337957  0.90165346  0.27844529    -0.21300
C575        C  0.35382442  0.87538623  0.27870950    -0.21300
C576        C  0.37979405  0.89905678  0.04019816    -0.21300
C577        C  0.34942453  0.87427935  0.04006077    -0.21300
C578        C  0.47668439  0.93575291  0.17826438    -0.22300
C579        C  0.47600618  0.93220561  0.13917289    -0.22300
C580        C  0.28168876  0.80327829  0.18070246    -0.22300
C581        C  0.27932459  0.80475467  0.14158538    -0.22300
C582        C  0.42996799  0.92337926  0.22957024    -0.17700
C583        C  0.32339171  0.83218296  0.23022257    -0.30500
C584        C  0.31909127  0.83237511  0.08801730    -0.17700
C585        C  0.42823001  0.91779789  0.08841328    -0.17700
H586        H  0.39354255  0.91796655  0.30298266     0.15200
H587        H  0.33672056  0.86821304  0.30332141     0.15200
H588        H  0.38765827  0.91750118  0.01661718     0.15200
H589        H  0.32964888  0.87043669  0.01649580     0.15200
H590        H  0.50066602  0.94491870  0.19564064     0.13500
H591        H  0.49886392  0.93751133  0.12047669     0.13500
H592        H  0.26134359  0.78945535  0.19938307     0.13500
H593        H  0.25591987  0.79276666  0.12598288     0.13500
H594        H  0.38253842  0.86898738  0.19144357     0.26800
H595        H  0.38405219  0.86276671  0.12551966     0.26800
C596        C  0.25824412  0.94885273  0.45208585     0.80800
N597        N  0.27654916  0.97809131  0.43308280    -0.77500
C598        C  0.31101705  0.99189573  0.44565878     0.83300
N599        N  0.32767795  0.97479827  0.47675843    -0.77400
C600        C  0.31004146  0.94531381  0.49580507     0.83400
N601        N  0.27560720  0.93239981  0.48299464    -0.79100
C602        C  0.45376316  0.80261977  0.49530985     0.80800
N603        N  0.43712947  0.77107967  0.47810024    -0.77500
C604        C  0.45325691  0.75405749  0.44671273     0.83300
N605        N  0.48536447  0.77000367  0.43166639    -0.77400
C606        C  0.50217810  0.80169636  0.44809622     0.83400
N607        N  0.48590128  0.81810789  0.47962633    -0.79100
N608        N  0.38225896  0.87414336  0.53747100    -0.36000
N609        N  0.43144438  0.84004186  0.59519440    -0.56600
N610        N  0.38797426  0.88292698  0.65269853    -0.36000
N611        N  0.34081120  0.91841915  0.59637083    -0.56600
C612        C  0.40580194  0.85300115  0.51458251     0.27600
C613        C  0.36025168  0.89700755  0.51472726     0.27600
C614        C  0.42108440  0.87505138  0.67001286     0.27600
C615        C  0.37336892  0.91338652  0.67147944     0.27600
C616        C  0.44221065  0.81733606  0.56550862     0.36200
C617        C  0.44466476  0.82375779  0.62784671     0.36200
C618        C  0.31990740  0.92882108  0.56547723     0.36200
C619        C  0.32111333  0.92846583  0.62823071     0.36200
C620        C  0.39811822  0.86225393  0.47678895    -0.21300
C621        C  0.36943355  0.88934061  0.47691733    -0.21300
C622        C  0.42849585  0.90122490  0.69922838    -0.21300
C623        C  0.39821725  0.92594220  0.69998708    -0.21300
C624        C  0.46360170  0.78662372  0.57940418    -0.22300
C625        C  0.46480730  0.79049225  0.61895939    -0.22300
C626        C  0.28677812  0.94665856  0.57781391    -0.22300
C627        C  0.28729919  0.94596425  0.61745294    -0.22300
C628        C  0.43320360  0.82462171  0.52630699    -0.17700
C629        C  0.33090737  0.92333356  0.52653955    -0.17700
C630        C  0.33600122  0.92543781  0.66622083    -0.17700
C631        C  0.44019349  0.84061947  0.66477414    -0.17700
H632        H  0.41133736  0.85031988  0.45151440     0.15200
H633        H  0.35580601  0.90074248  0.45173580     0.15200
H634        H  0.45247456  0.90143918  0.71880802     0.15200
H635        H  0.39503904  0.94980256  0.71978473     0.15200
H636        H  0.47668363  0.76372023  0.56284847     0.13500
H637        H  0.47965990  0.77171204  0.63867113     0.13500
H638        H  0.26447062  0.95885185  0.56016185     0.13500
H639        H  0.26608576  0.95861502  0.63591229     0.13500
H640        H  0.38060221  0.87251937  0.56691140     0.26800
H641        H  0.37393181  0.86544680  0.63263885     0.26800
N642        N  0.38515044  0.03315486  0.37771740    -0.36000
N643        N  0.33926118  0.09312423  0.41359811    -0.56600
N644        N  0.37974595  0.15502532  0.37180943    -0.36000
N645        N  0.43073092  0.09428675  0.34126301    -0.56600
C646        C  0.36754311  0.01222118  0.40527590     0.27600
C647        C  0.41501542  0.01218731  0.36467733     0.27600
C648        C  0.36183305  0.17532478  0.39918805     0.27600
C649        C  0.41018877  0.17604930  0.36148303     0.27600
C650        C  0.31779288  0.06076612  0.41969466     0.36200
C651        C  0.31534811  0.12401757  0.41393448     0.36200
C652        C  0.44028080  0.06186840  0.32061755     0.36200
C653        C  0.43723515  0.12585383  0.31865825     0.36200
C654        C  0.38682966  0.97750064  0.40970906    -0.21300
C655        C  0.41647442  0.97727781  0.38396794    -0.21300
C656        C  0.38145735  0.20935300  0.40709639    -0.21300
C657        C  0.41221300  0.20984713  0.38302745    -0.21300
C658        C  0.28009465  0.07115343  0.42404708    -0.22300
C659        C  0.27849820  0.11079621  0.41937330    -0.22300
C660        C  0.45308434  0.07250640  0.28517533    -0.22300
C661        C  0.45043229  0.11208858  0.28355251    -0.22300
C662        C  0.33259359  0.02245988  0.42327810    -0.17700
C663        C  0.43827055  0.02261503  0.33332519    -0.17700
C664        C  0.43298787  0.16643295  0.33037057    -0.17700
C665        C  0.32720633  0.16403545  0.41493742    -0.17700
H666        H  0.38006174  0.95430078  0.42883412     0.15200
H667        H  0.43640115  0.95382936  0.37962559     0.15200
H668        H  0.37464946  0.23149685  0.42793262     0.15200
H669        H  0.43357806  0.23239846  0.38197881     0.15200
H670        H  0.25608346  0.05224949  0.42914717     0.13500
H671        H  0.25305605  0.12807362  0.41951946     0.13500
H672        H  0.46231174  0.05364075  0.26222349     0.13500
H673        H  0.45686555  0.12755528  0.25807688     0.13500
H674        H  0.37568377  0.05914418  0.36617753     0.26800
H675        H  0.37007502  0.12953604  0.35880445     0.26800
N676        N  0.21640001  0.87508545  0.38317427    -0.36000
N677        N  0.15815101  0.90958706  0.43394809    -0.56600
N678        N  0.10362293  0.85758773  0.40069501    -0.36000
N679        N  0.16120724  0.82009784  0.35287272    -0.56600
C680        C  0.23868041  0.89674084  0.40692647     0.27600
C681        C  0.23952646  0.85077624  0.36318770     0.27600
C682        C  0.08377838  0.87104288  0.43062713     0.27600
C683        C  0.08611912  0.82492829  0.38938811     0.27600
C684        C  0.18773802  0.93341343  0.44274279     0.36200
C685        C  0.12586548  0.92544839  0.44853209     0.36200
C686        C  0.18991089  0.81228010  0.32843037     0.36200
C687        C  0.12906793  0.80511516  0.33725691     0.36200
C688        C  0.27640568  0.88633119  0.40125380    -0.21300
C689        C  0.27690312  0.85759718  0.37396596    -0.21300
C690        C  0.05390468  0.84614058  0.43903558    -0.21300
C691        C  0.05542397  0.81678479  0.41274614    -0.21300
C692        C  0.17421760  0.96441887  0.46416028    -0.22300
C693        C  0.13510688  0.95950656  0.46751541    -0.22300
C694        C  0.17613392  0.79097505  0.29755856    -0.22300
C695        C  0.13740655  0.78683047  0.30293689    -0.22300
C696        C  0.22668636  0.92658609  0.43274294    -0.17700
C697        C  0.22833472  0.82353586  0.33442319    -0.17700
C698        C  0.09279788  0.80687039  0.35459539    -0.17700
C699        C  0.08901924  0.90763976  0.44675355    -0.17700
H700        H  0.30132858  0.89849320  0.41493814     0.15200
H701        H  0.30211072  0.84354373  0.36316572     0.15200
H702        H  0.03229762  0.84954304  0.46070043     0.15200
H703        H  0.03514297  0.79326918  0.40974913     0.15200
H704        H  0.19077278  0.98809138  0.47610345     0.13500
H705        H  0.11587115  0.97803279  0.48316819     0.13500
H706        H  0.19219920  0.78002565  0.27351647     0.13500
H707        H  0.11780646  0.77159714  0.28415622     0.13500
H708        H  0.18728810  0.87795543  0.37975614     0.26800
H709        H  0.12459092  0.87227491  0.38569509     0.26800
O710        O  0.81760110  0.05065992  0.27968342    -0.77900
C711        C  0.82922725  0.94464105  0.20137417     0.83100
O712        O  0.76043545  0.07553160  0.20842061    -0.79000
O713        O  0.72490344  0.96001739  0.18380174    -0.80500
O714        O  0.73222756  0.93204934  0.32117175    -0.80300
O715        O  0.79906471  0.02045799  0.33217850    -0.78900
Zn716      Zn  0.80428912  0.00858967  0.24164465     1.55700
O717        O  0.71201618  0.91481696  0.26285574    -0.80300
Cd718      Cd  0.75653019  0.98541722  0.30880128     1.59700
Cd719      Cd  0.72203955  0.03352536  0.23547178     1.59600
O720        O  0.71411928  0.01547234  0.33031840    -0.80300
O721        O  0.75735120  0.99305583  0.25481049    -1.90800
Cd722      Cd  0.75149189  0.94395168  0.23043289     1.59900
O723        O  0.69797541  0.05790401  0.28520228    -0.80300
O724        O  0.79862706  0.92546338  0.20321512    -0.78900
C725        C  0.79236336  0.06506993  0.19387738     0.83600
C726        C  0.81333564  0.05030493  0.31574463     0.83300
O727        O  0.83973255  0.96649840  0.22892801    -0.77900
C728        C  0.70791780  0.91545145  0.29893140     0.84100
O729        O  0.79889559  0.02958885  0.19123833    -0.78000
C730        C  0.69656333  0.04529971  0.31967821     0.84200
C731        C  0.69103862  0.96312125  0.19345910     0.84500
O732        O  0.68070571  0.99503764  0.20931009    -0.80400
O733        O  0.82790083  0.23317740  0.95335265    -0.77900
C734        C  0.82560016  0.30982705  0.05721609     0.83100
O735        O  0.76215553  0.21103421  0.06808952    -0.79000
O736        O  0.72929181  0.31101583  0.06547018    -0.80500
O737        O  0.72162230  0.31074786  0.92580236    -0.80300
O738        O  0.77728197  0.21173199  0.92296169    -0.78900
Zn739      Zn  0.80428669  0.24342292  0.00327692     1.55700
O740        O  0.71177341  0.33837517  0.98281710    -0.80300
Cd741      Cd  0.74363178  0.25889863  0.94363846     1.59700
Cd742      Cd  0.72190399  0.23052740  0.02651405     1.59600
O743        O  0.69207350  0.23671157  0.94375374    -0.80300
O744        O  0.75691200  0.26265088  0.99676411    -1.90800
Cd745      Cd  0.75503073  0.31460541  0.01544866     1.59900
O746        O  0.70569951  0.18976671  0.98246705    -0.80300
O747        O  0.80548517  0.33389866  0.03817303    -0.78900
C748        C  0.79355841  0.19618819  0.05674885     0.83600
C749        C  0.81160580  0.20649241  0.93393680     0.83300
O750        O  0.82851019  0.27456202  0.04690742    -0.77900
C751        C  0.70095749  0.33061428  0.94882194     0.84100
O752        O  0.79788781  0.19111412  0.02153175    -0.78000
C753        C  0.69567883  0.20122046  0.94898222     0.84200
C754        C  0.69450017  0.30714985  0.05850152     0.84500
O755        O  0.68287347  0.27508951  0.04355916    -0.80400
C756        C  0.30361911  0.25338431  0.80934221     0.80800
N757        N  0.27124740  0.26987780  0.82359459    -0.77500
C758        C  0.25343504  0.29953713  0.80477723     0.83300
N759        N  0.26946644  0.31376736  0.77221895    -0.77400
C760        C  0.30192670  0.29801998  0.75761067     0.83400
N761        N  0.31906341  0.26815407  0.77666662    -0.79100
C762        C  0.49671646  0.30600605  0.95728900     0.80800
N763        N  0.47960741  0.27585710  0.93804994    -0.77500
C764        C  0.44835053  0.25758857  0.95263240     0.83300
N765        N  0.43372700  0.27063723  0.98641334    -0.77400
C766        C  0.44963959  0.30123438  0.00585658     0.83400
N767        N  0.48088568  0.31909065  0.99068161    -0.79100
C768        C  0.44176343  0.44236961  0.75480085     0.80800
N769        N  0.47132942  0.42444810  0.77308447    -0.77500
C770        C  0.48583982  0.43912355  0.80649928     0.83300
N771        N  0.46988990  0.47154722  0.82200275    -0.77400
C772        C  0.44048360  0.48993133  0.80412480     0.83400
N773        N  0.42613094  0.47466979  0.77095803    -0.79100
C774        C  0.25774388  0.43537967  0.95315446     0.80800
N775        N  0.27189553  0.41903901  0.98553225    -0.77500
C776        C  0.30388764  0.43340667  0.00257888     0.83300
N777        N  0.32244026  0.46415258  0.98646266    -0.77400
C778        C  0.30855348  0.48114223  0.95404582     0.83400
N779        N  0.27651371  0.46607037  0.93729845    -0.79100
N780        N  0.37372133  0.52751987  0.87998207    -0.36000
N781        N  0.33226332  0.58418514  0.92618386    -0.56600
N782        N  0.36667611  0.64756000  0.88235350    -0.36000
N783        N  0.40380473  0.59017941  0.83207866    -0.56600
C784        C  0.35268704  0.50289752  0.90159817     0.27600
C785        C  0.39208341  0.50620576  0.85316682     0.27600
C786        C  0.33936691  0.66682922  0.90167573     0.27600
C787        C  0.37545532  0.66933249  0.85169622     0.27600
C788        C  0.32781846  0.55174322  0.94774361     0.36200
C789        C  0.32695420  0.61527969  0.94951638     0.36200
C790        C  0.42464080  0.56033565  0.81784051     0.36200
C791        C  0.41879982  0.62356660  0.81819739     0.36200
C792        C  0.35866098  0.46538562  0.88886846    -0.21300
C793        C  0.38287950  0.46743406  0.85820603    -0.21300
C794        C  0.33058867  0.70095752  0.88268840    -0.21300
C795        C  0.35372734  0.70268434  0.85136360    -0.21300
C796        C  0.31950388  0.56207198  0.98497523    -0.22300
C797        C  0.31996421  0.60201156  0.98640456    -0.22300
C798        C  0.45265337  0.57491461  0.79408836    -0.22300
C799        C  0.44903681  0.61481343  0.79438946    -0.22300
C800        C  0.33035754  0.51292728  0.93406147    -0.17700
C801        C  0.41838419  0.52015562  0.82547050    -0.17700
C802        C  0.40471118  0.66162325  0.82579419    -0.17700
C803        C  0.32397456  0.65490861  0.93683933    -0.17700
H804        H  0.34895268  0.43902944  0.90197540     0.15200
H805        H  0.39331713  0.44288504  0.84217637     0.15200
H806        H  0.30989822  0.72272085  0.89007527     0.15200
H807        H  0.35450933  0.72587589  0.83062254     0.15200
H808        H  0.31471995  0.54286382  0.00887416     0.13500
H809        H  0.31556996  0.61917930  0.01197301     0.13500
H810        H  0.47359629  0.55852627  0.77827101     0.13500
H811        H  0.46644162  0.63500510  0.77857718     0.13500
H812        H  0.37660739  0.55703927  0.88412297     0.26800
H813        H  0.38044517  0.62241533  0.89102728     0.26800
N814        N  0.53235083  0.37405534  0.88138913    -0.36000
N815        N  0.58680433  0.41577397  0.83413799    -0.56600
N816        N  0.64897418  0.38471654  0.87874811    -0.36000
N817        N  0.59474745  0.34667554  0.93007535    -0.56600
C818        C  0.50857389  0.39820856  0.86202874     0.27600
C819        C  0.51266126  0.35841261  0.91087349     0.27600
C820        C  0.66655750  0.41308043  0.85948978     0.27600
C821        C  0.67021576  0.37863264  0.91008263     0.27600
C822        C  0.55472239  0.42103394  0.81310548     0.36200
C823        C  0.61667045  0.42352476  0.81102624     0.36200
C824        C  0.56622718  0.32410751  0.94398640     0.36200
C825        C  0.62835594  0.33187173  0.94278762     0.36200
C826        C  0.47324636  0.39763100  0.87946923    -0.21300
C827        C  0.47572324  0.37250166  0.90998261    -0.21300
C828        C  0.69875136  0.42570294  0.87914994    -0.21300
C829        C  0.70122168  0.40349639  0.91122092    -0.21300
C830        C  0.56418743  0.43248574  0.77646548    -0.22300
C831        C  0.60329494  0.43341379  0.77501595    -0.22300
C832        C  0.58189534  0.29526213  0.96660446    -0.22300
C833        C  0.62108353  0.30007057  0.96567721    -0.22300
C834        C  0.51719601  0.41850759  0.82759574    -0.17700
C835        C  0.52639724  0.33011032  0.93717287    -0.17700
C836        C  0.66509231  0.34781837  0.93466498    -0.17700
C837        C  0.65530475  0.42592524  0.82358321    -0.17700
H838        H  0.44795720  0.41299609  0.87072877     0.15200
H839        H  0.45275095  0.36528953  0.92919101     0.15200
H840        H  0.71867488  0.44816991  0.87114499     0.15200
H841        H  0.72361938  0.40484057  0.93258787     0.15200
H842        H  0.54502726  0.43936131  0.75314321     0.13500
H843        H  0.61982709  0.44078373  0.75030332     0.13500
H844        H  0.56670731  0.27302795  0.98208028     0.13500
H845        H  0.64177560  0.28233413  0.98032213     0.13500
H846        H  0.55986523  0.36671776  0.87367899     0.26800
H847        H  0.62591136  0.36811135  0.86939096     0.26800
N848        N  0.37029641  0.37066998  0.71361329    -0.36000
N849        N  0.32815301  0.32639685  0.65510031    -0.56600
N850        N  0.36586466  0.37163871  0.59524115    -0.36000
N851        N  0.40694241  0.41721942  0.65383065    -0.56600
C852        C  0.35110838  0.34593157  0.73678852     0.27600
C853        C  0.39449342  0.39192481  0.73581034     0.27600
C854        C  0.33864759  0.35417765  0.57393135     0.27600
C855        C  0.37878233  0.40138131  0.57402435     0.27600
C856        C  0.31191969  0.31085193  0.68686534     0.36200
C857        C  0.30967012  0.31177091  0.62389402     0.36200
C858        C  0.42627796  0.43180295  0.68445103     0.36200
C859        C  0.42172293  0.43341868  0.62183657     0.36200
C860        C  0.36310993  0.35188952  0.77422948    -0.21300
C861        C  0.39027560  0.38053211  0.77363057    -0.21300
C862        C  0.33434381  0.37312729  0.53918467    -0.21300
C863        C  0.35972679  0.40282749  0.53924984    -0.21300
C864        C  0.28285920  0.28613942  0.67589053    -0.22300
C865        C  0.28108612  0.28706326  0.63655233    -0.22300
C866        C  0.45337165  0.45798104  0.67171437    -0.22300
C867        C  0.45062524  0.45884409  0.63220308    -0.22300
C868        C  0.32249756  0.31857318  0.72573805    -0.17700
C869        C  0.42032438  0.42143522  0.72358780    -0.17700
C870        C  0.40870000  0.42632095  0.58363120    -0.17700
C871        C  0.31679076  0.32205430  0.58453544    -0.17700
H872        H  0.35352627  0.33705567  0.79957935     0.15200
H873        H  0.40539256  0.39137397  0.79849490     0.15200
H874        H  0.31433532  0.36694320  0.51629410     0.15200
H875        H  0.36349756  0.42347231  0.51633606     0.15200
H876        H  0.26402490  0.26996191  0.69433005     0.13500
H877        H  0.25923614  0.27280944  0.62003444     0.13500
H878        H  0.47328849  0.47449666  0.68904556     0.13500
H879        H  0.46762001  0.47654556  0.61335067     0.13500
H880        H  0.36656278  0.37340611  0.68446432     0.26800
H881        H  0.37637780  0.36261804  0.62153283     0.26800
N882        N  0.37390694  0.36612629  0.04696946    -0.36000
N883        N  0.32499413  0.40241229  0.10513781    -0.56600
N884        N  0.37244452  0.37167936  0.16565179    -0.36000
N885        N  0.41655060  0.32675190  0.10660002    -0.56600
C886        C  0.34541750  0.38006713  0.02494423     0.27600
C887        C  0.39226894  0.33883595  0.02613696     0.27600
C888        C  0.34125970  0.38145466  0.18548745     0.27600
C889        C  0.39117019  0.34536279  0.18660285     0.27600
C890        C  0.31504352  0.42259408  0.07312060     0.36200
C891        C  0.31321536  0.42351700  0.13593425     0.36200
C892        C  0.43984516  0.32407702  0.07558501     0.36200
C893        C  0.43923207  0.33169267  0.13781643     0.36200
C894        C  0.34548818  0.36162465  0.98969572    -0.21300
C895        C  0.37480097  0.33547217  0.99061274    -0.21300
C896        C  0.33985457  0.36089740  0.21943451    -0.21300
C897        C  0.37157948  0.33769311  0.22005145    -0.21300
C898        C  0.29594178  0.45564776  0.08308072    -0.22300
C899        C  0.29501077  0.45633400  0.12209310    -0.22300
C900        C  0.47734227  0.32728996  0.08713719    -0.22300
C901        C  0.47649664  0.33386050  0.12618853    -0.22300
C902        C  0.32179441  0.41140136  0.03471553    -0.17700
C903        C  0.42678153  0.32071665  0.03706559    -0.17700
C904        C  0.42671256  0.33085082  0.17671953    -0.17700
C905        C  0.31836657  0.41275014  0.17574044    -0.17700
H906        H  0.32686359  0.36686453  0.96551210     0.15200
H907        H  0.38270575  0.31704699  0.96721021     0.15200
H908        H  0.31865907  0.36273497  0.24165651     0.15200
H909        H  0.37972699  0.31828607  0.24289481     0.15200
H910        H  0.28407850  0.47736104  0.06422523     0.13500
H911        H  0.28177765  0.47917191  0.13681151     0.13500
H912        H  0.50220622  0.32832426  0.06906561     0.13500
H913        H  0.49981224  0.34343967  0.14373194     0.13500
H914        H  0.38210177  0.37707571  0.07353518     0.26800
H915        H  0.38241421  0.38462853  0.14074683     0.26800
N916        N  0.37553776  0.21391764  0.88203214    -0.36000
N917        N  0.41725594  0.15504059  0.92690108    -0.56600
N918        N  0.37520232  0.09487775  0.88668468    -0.36000
N919        N  0.33149306  0.15240063  0.84404247    -0.56600
C920        C  0.39693960  0.23776666  0.90475077     0.27600
C921        C  0.35119465  0.23609834  0.86103261     0.27600
C922        C  0.39001753  0.07586678  0.91676619     0.27600
C923        C  0.34430899  0.07481626  0.87554750     0.27600
C924        C  0.43888335  0.18712553  0.93405951     0.36200
C925        C  0.43955184  0.12330298  0.93274137     0.36200
C926        C  0.31874630  0.18284932  0.82312263     0.36200
C927        C  0.32012999  0.11927330  0.82607350     0.36200
C928        C  0.38647409  0.27574288  0.89742928    -0.21300
C929        C  0.35754779  0.27470437  0.87050719    -0.21300
C930        C  0.36757352  0.04428674  0.92591286    -0.21300
C931        C  0.33857628  0.04354438  0.89976431    -0.21300
C932        C  0.47482922  0.17595633  0.94528346    -0.22300
C933        C  0.47552748  0.13613796  0.94334700    -0.22300
C934        C  0.29824826  0.16881448  0.79191521    -0.22300
C935        C  0.29933760  0.12872272  0.79366586    -0.22300
C936        C  0.42724619  0.22648789  0.92999514    -0.17700
C937        C  0.32483773  0.22298411  0.83211145    -0.17700
C938        C  0.32561364  0.08108741  0.84079541    -0.17700
C939        C  0.42624903  0.08358527  0.93102319    -0.17700
H940        H  0.39978878  0.30176260  0.90846040     0.15200
H941        H  0.34367305  0.29978818  0.85839968     0.15200
H942        H  0.37158073  0.02334247  0.94839483     0.15200
H943        H  0.31650976  0.02174874  0.89884128     0.15200
H944        H  0.49869426  0.19458546  0.95236726     0.13500
H945        H  0.50029499  0.11944200  0.94876011     0.13500
H946        H  0.28403332  0.18567290  0.77008358     0.13500
H947        H  0.28544155  0.10890210  0.77401459     0.13500
H948        H  0.37832538  0.18417151  0.88015623     0.26800
H949        H  0.38813244  0.11734788  0.87165880     0.26800
N950        N  0.21380942  0.36842224  0.87888353    -0.36000
N951        N  0.15702715  0.41308272  0.92265954    -0.56600
N952        N  0.09805962  0.38209367  0.87561327    -0.36000
N953        N  0.15533404  0.34143406  0.82778855    -0.56600
C954        C  0.23667787  0.39313800  0.89873347     0.27600
C955        C  0.23535913  0.35106249  0.85159836     0.27600
C956        C  0.07946806  0.41060710  0.89390184     0.27600
C957        C  0.08010344  0.37716309  0.84213530     0.27600
C958        C  0.18845631  0.41744011  0.94492966     0.36200
C959        C  0.12626999  0.41885841  0.94527152     0.36200
C960        C  0.18369726  0.31812074  0.81498287     0.36200
C961        C  0.12229516  0.32853427  0.81208812     0.36200
C962        C  0.27314267  0.39075298  0.88421017    -0.21300
C963        C  0.27242655  0.36438222  0.85470068    -0.21300
C964        C  0.04991758  0.42459551  0.87148334    -0.21300
C965        C  0.05016083  0.40300183  0.83855871    -0.21300
C966        C  0.17784733  0.42634870  0.98199128    -0.22300
C967        C  0.13861588  0.42620971  0.98247742    -0.22300
C968        C  0.16867961  0.29079169  0.78994839    -0.22300
C969        C  0.12987454  0.29749129  0.78799774    -0.22300
C970        C  0.22642043  0.41536724  0.93145794    -0.17700
C971        C  0.22294301  0.32266907  0.82467954    -0.17700
C972        C  0.08594459  0.34565592  0.81833683    -0.17700
C973        C  0.08797288  0.42215401  0.93110115    -0.17700
H974        H  0.29809928  0.40529742  0.89468876     0.15200
H975        H  0.29660996  0.35590199  0.83765842     0.15200
H976        H  0.03004201  0.44750995  0.87807304     0.15200
H977        H  0.03002739  0.40513174  0.81510159     0.15200
H978        H  0.19636181  0.43163642  0.00631172     0.13500
H979        H  0.12137852  0.43119847  0.00748298     0.13500
H980        H  0.18411178  0.26879119  0.77430306     0.13500
H981        H  0.10987521  0.28227801  0.76974138     0.13500
H982        H  0.18560175  0.36230920  0.88499290     0.26800
H983        H  0.11933813  0.36439656  0.88680981     0.26800
C984        C  0.68842733  0.75368627  0.19695065     0.80800
N985        N  0.71832902  0.73536546  0.17978025    -0.77500
C986        C  0.73324308  0.70216584  0.19496715     0.83300
N987        N  0.71720095  0.68685536  0.22714197    -0.77400
C988        C  0.68742075  0.70482478  0.24481411     0.83400
N989        N  0.67291395  0.73781900  0.22905354    -0.79100
N990        N  0.61742427  0.63183648  0.28570004    -0.36000
N991        N  0.57356087  0.58865714  0.34352184    -0.56600
N992        N  0.61076570  0.63425831  0.40216056    -0.36000
N993        N  0.65189786  0.68034033  0.34493141    -0.56600
C994        C  0.59334578  0.61147201  0.26249481     0.27600
C995        C  0.63639565  0.65791165  0.26369059     0.27600
C996        C  0.58230934  0.61766393  0.42188454     0.27600
C997        C  0.62113113  0.66604895  0.42194742     0.27600
C998        C  0.56496593  0.56727965  0.31176246     0.36200
C999        C  0.56551704  0.56685362  0.37491543     0.36200
C1000       C  0.67383326  0.69180819  0.31520040     0.36200
C1001       C  0.66905924  0.69266132  0.37767715     0.36200
C1002       C  0.59757993  0.62464104  0.22537170    -0.21300
C1003       C  0.62448250  0.65353715  0.22609831    -0.21300
C1004       C  0.57372655  0.63992931  0.45386112    -0.21300
C1005       C  0.59858086  0.67051543  0.45398488    -0.21300
C1006       C  0.55030470  0.53189556  0.32289749    -0.22300
C1007       C  0.55122052  0.53128942  0.36247569    -0.22300
C1008       C  0.70480987  0.71256971  0.32918346    -0.22300
C1009       C  0.70195985  0.71279674  0.36872685    -0.22300
C1010       C  0.56958474  0.57954713  0.27295864    -0.17700
C1011       C  0.66559038  0.68422315  0.27579745    -0.17700
C1012       C  0.65414227  0.68710792  0.41510986    -0.17700
C1013       C  0.56868846  0.58035234  0.41407045    -0.17700
H1014       H  0.58399585  0.61349884  0.19994623     0.15200
H1015       H  0.63498643  0.66860470  0.20138035     0.15200
H1016       H  0.55238688  0.63486175  0.47535664     0.15200
H1017       H  0.60075266  0.69281669  0.47579753     0.15200
H1018       H  0.54054383  0.50859468  0.30443480     0.13500
H1019       H  0.54156141  0.50729287  0.37950464     0.13500
H1020       H  0.72724213  0.72586360  0.31267178     0.13500
H1021       H  0.72148392  0.72667564  0.38853333     0.13500
H1022       H  0.62195093  0.62688278  0.31453276     0.26800
H1023       H  0.62541541  0.62208716  0.37926510     0.26800
C1024       C  0.74333552  0.55959639  0.05310286     0.80800
N1025       N  0.72908486  0.57768622  0.02176029    -0.77500
C1026       C  0.69666870  0.56493295  0.00450141     0.83300
N1027       N  0.67758900  0.53402503  0.01964722    -0.77400
C1028       C  0.69177618  0.51510916  0.05095779     0.83400
N1029       N  0.72436949  0.52852888  0.06782530    -0.79100
C1030       C  0.50922067  0.71241700  0.05164357     0.80800
N1031       N  0.52947314  0.69587291  0.02268277    -0.77500
C1032       C  0.56038603  0.71421231  0.00763072     0.83300
N1033       N  0.57184376  0.74901510  0.02315907    -0.77400
C1034       C  0.55164046  0.76641586  0.05203735     0.83400
N1035       N  0.52065731  0.74740477  0.06618078    -0.79100
C1036       C  0.55032630  0.50959688  0.19200486     0.80800
N1037       N  0.56488045  0.52545603  0.22500603    -0.77500
C1038       C  0.54938083  0.55822248  0.24066609     0.83300
N1039       N  0.51991823  0.57591794  0.22189180    -0.77400
C1040       C  0.50502677  0.56080283  0.18879844     0.83400
N1041       N  0.52077640  0.52790476  0.17388970    -0.79100
N1042       N  0.46601710  0.63656732  0.11846997    -0.36000
N1043       N  0.40655077  0.59750674  0.16236895    -0.56600
N1044       N  0.35333293  0.65133412  0.13146434    -0.36000
N1045       N  0.41129948  0.69290378  0.08938135    -0.56600
C1046       C  0.48793594  0.61332804  0.14109896     0.27600
C1047       C  0.48947023  0.66060342  0.09849574     0.27600
C1048       C  0.33505419  0.63606796  0.16136317     0.27600
C1049       C  0.34010761  0.68745355  0.12752878     0.27600
C1050       C  0.43601320  0.57430727  0.17218143     0.36200
C1051       C  0.37370133  0.57933505  0.17218254     0.36200
C1052       C  0.44004191  0.70091509  0.06527892     0.36200
C1053       C  0.37914864  0.70814419  0.07424449     0.36200
C1054       C  0.52572739  0.62234699  0.13448706    -0.21300
C1055       C  0.52673665  0.65151569  0.10771651    -0.21300
C1056       C  0.31086698  0.66291880  0.17770374    -0.21300
C1057       C  0.31433241  0.69584888  0.15632962    -0.21300
C1058       C  0.42184439  0.54125616  0.18953531    -0.22300
C1059       C  0.38250581  0.54425680  0.18908083    -0.22300
C1060       C  0.42620540  0.72252175  0.03478448    -0.22300
C1061       C  0.38734371  0.72658060  0.04020290    -0.22300
C1062       C  0.47529405  0.58328033  0.16654806    -0.17700
C1063       C  0.47851277  0.68997009  0.07158059    -0.17700
C1064       C  0.34380350  0.70752621  0.09338771    -0.17700
C1065       C  0.33696869  0.59702474  0.16991392    -0.17700
H1066       H  0.55028810  0.60861439  0.14670866     0.15200
H1067       H  0.55223635  0.66369245  0.09565040     0.15200
H1068       H  0.29217168  0.65927505  0.20182421     0.15200
H1069       H  0.29831679  0.72217816  0.16057930     0.15200
H1070       H  0.43810270  0.51752849  0.20139039     0.13500
H1071       H  0.36308342  0.52420589  0.20205449     0.13500
H1072       H  0.44234712  0.73381481  0.01101512     0.13500
H1073       H  0.36774643  0.74218857  0.02196402     0.13500
H1074       H  0.43669388  0.63564651  0.11610082     0.26800
H1075       H  0.36992263  0.63609702  0.11181925     0.26800
N1076       N  0.62113833  0.46959684  0.11980557    -0.36000
N1077       N  0.66047434  0.41192547  0.07203571    -0.56600
N1078       N  0.62047268  0.35175877  0.11290024    -0.36000
N1079       N  0.57894044  0.40820818  0.15862722    -0.56600
C1080       C  0.63932017  0.49340593  0.09482553     0.27600
C1081       C  0.59616698  0.49135538  0.14028372     0.27600
C1082       C  0.63386335  0.33303627  0.08198224     0.27600
C1083       C  0.59036613  0.33127246  0.12477551     0.27600
C1084       C  0.68133931  0.44399172  0.06393582     0.36200
C1085       C  0.68206488  0.38045713  0.06339283     0.36200
C1086       C  0.56764333  0.43849386  0.18066908     0.36200
C1087       C  0.56860890  0.37487452  0.17635584     0.36200
C1088       C  0.62600290  0.53082878  0.09980706    -0.21300
C1089       C  0.59917078  0.52954116  0.12830191    -0.21300
C1090       C  0.61150914  0.30106760  0.07335921    -0.21300
C1091       C  0.58394299  0.29982692  0.10061724    -0.21300
C1092       C  0.71597533  0.43300785  0.04892098    -0.22300
C1093       C  0.71677356  0.39309720  0.04925384    -0.22300
C1094       C  0.54930625  0.42416574  0.21276238    -0.22300
C1095       C  0.55022972  0.38393051  0.21020597    -0.22300
C1096       C  0.66952839  0.48301977  0.06964146    -0.17700
C1097       C  0.57214251  0.47855249  0.17081381    -0.17700
C1098       C  0.57254481  0.33714793  0.15975672    -0.17700
C1099       C  0.66918324  0.34104969  0.06637182    -0.17700
H1100       H  0.63524840  0.55670348  0.08512699     0.15200
H1101       H  0.58438888  0.55432997  0.13960039     0.15200
H1102       H  0.61486887  0.28021016  0.05049779     0.15200
H1103       H  0.56244301  0.27750361  0.10287578     0.15200
H1104       H  0.73878646  0.45176373  0.03956543     0.13500
H1105       H  0.74051989  0.37611611  0.03976897     0.13500
H1106       H  0.53643158  0.44091716  0.23549436     0.13500
H1107       H  0.53780371  0.36377713  0.23025517     0.13500
H1108       H  0.62681412  0.44048639  0.12383101     0.26800
H1109       H  0.63388053  0.37432147  0.12769512     0.26800
N1110       N  0.63201093  0.64289427  0.96503267    -0.36000
N1111       N  0.68123284  0.60769270  0.90587694    -0.56600
N1112       N  0.63941055  0.65040203  0.84907890    -0.36000
N1113       N  0.59362246  0.68958039  0.90684170    -0.56600
C1114       C  0.65485667  0.62051556  0.98715203     0.27600
C1115       C  0.61279896  0.66778595  0.98831165     0.27600
C1116       C  0.67084357  0.64108117  0.82948006     0.27600
C1117       C  0.62183210  0.67836768  0.82925187     0.27600
C1118       C  0.68937481  0.58356802  0.93528769     0.36200
C1119       C  0.69531529  0.59139092  0.87343528     0.36200
C1120       C  0.57182169  0.69735205  0.93797758     0.36200
C1121       C  0.57102493  0.69263510  0.87526349     0.36200
C1122       C  0.64977063  0.63112642  0.02521408    -0.21300
C1123       C  0.62361120  0.66092151  0.02588510    -0.21300
C1124       C  0.67425533  0.66423100  0.79745951    -0.21300
C1125       C  0.64303512  0.68794274  0.79722377    -0.21300
C1126       C  0.71010416  0.55227516  0.92155168    -0.22300
C1127       C  0.71358905  0.55708983  0.88241977    -0.22300
C1128       C  0.53547132  0.70671882  0.92626878    -0.22300
C1129       C  0.53457964  0.70253675  0.88707029    -0.22300
C1130       C  0.67895823  0.58972742  0.97432906    -0.17700
C1131       C  0.58355357  0.69415680  0.97693406    -0.17700
C1132       C  0.58420771  0.68876137  0.83642566    -0.17700
C1133       C  0.69176834  0.60763758  0.83611813    -0.17700
H1134       H  0.66324417  0.61852941  0.05013048     0.15200
H1135       H  0.61298798  0.67510721  0.05132585     0.15200
H1136       H  0.69581677  0.66259941  0.77552427     0.15200
H1137       H  0.63643248  0.70858921  0.77506390     0.15200
H1138       H  0.72109772  0.52817687  0.93792254     0.13500
H1139       H  0.72779610  0.53758361  0.86287907     0.13500
H1140       H  0.51146749  0.71382920  0.94420654     0.13500
H1141       H  0.50946072  0.70679889  0.87001785     0.13500
H1142       H  0.62862057  0.63981837  0.93578312     0.26800
H1143       H  0.62752152  0.63492127  0.87155222     0.26800
N1144       N  0.77970372  0.63120782  0.12567966    -0.36000
N1145       N  0.84215537  0.59169464  0.08412771    -0.56600
N1146       N  0.89667628  0.63581921  0.12783034    -0.36000
N1147       N  0.83428427  0.67193956  0.17233821    -0.56600
C1148       C  0.76012124  0.60256873  0.10762703     0.27600
C1149       C  0.75609836  0.64798049  0.15168077     0.27600
C1150       C  0.91664010  0.60545702  0.11467173     0.27600
C1151       C  0.91275871  0.64600418  0.16135530     0.27600
C1152       C  0.81185113  0.57882728  0.06356938     0.36200
C1153       C  0.87402360  0.58429418  0.06346035     0.36200
C1154       C  0.80297540  0.69388246  0.17916920     0.36200
C1155       C  0.86515681  0.69402407  0.18075824     0.36200
C1156       C  0.72338345  0.60145440  0.12229474    -0.21300
C1157       C  0.72091297  0.62998604  0.14989662    -0.21300
C1158       C  0.94465500  0.59529433  0.14097504    -0.21300
C1159       C  0.94219855  0.62120390  0.17057038    -0.21300
C1160       C  0.82461491  0.56236928  0.02965820    -0.22300
C1161       C  0.86386352  0.56600682  0.02947775    -0.22300
C1162       C  0.81372444  0.73003446  0.19239375    -0.22300
C1163       C  0.85286780  0.73058514  0.19250183    -0.22300
C1164       C  0.77323579  0.57985860  0.07607336    -0.17700
C1165       C  0.76491067  0.68085931  0.17482414    -0.17700
C1166       C  0.90352848  0.67964299  0.18106542    -0.17700
C1167       C  0.91172177  0.59018519  0.07784898    -0.17700
H1168       H  0.70016366  0.58278137  0.11350975     0.15200
H1169       H  0.69577052  0.63712265  0.16616263     0.15200
H1170       H  0.96443408  0.57144066  0.14000894     0.15200
H1171       H  0.95996222  0.62157754  0.19596218     0.15200
H1172       H  0.80750877  0.54868412  0.00754207     0.13500
H1173       H  0.88254176  0.55494272  0.00755297     0.13500
H1174       H  0.79534657  0.75388417  0.20017909     0.13500
H1175       H  0.86975538  0.75572847  0.19985680     0.13500
H1176       H  0.80694238  0.64031739  0.11872626     0.26800
H1177       H  0.87562481  0.65106859  0.11306323     0.26800
N1178       N  0.61970474  0.80319201  0.12830926    -0.36000
N1179       N  0.65725119  0.85699762  0.18307748    -0.56600
N1180       N  0.61302782  0.91859468  0.14862065    -0.36000
N1181       N  0.57393022  0.86650144  0.09730361    -0.56600
C1182       C  0.63794426  0.77775267  0.15166109     0.27600
C1183       C  0.59489102  0.78262590  0.10625898     0.27600
C1184       C  0.62828109  0.93484927  0.17996950     0.27600
C1185       C  0.58270074  0.93983189  0.13947562     0.27600
C1186       C  0.68022944  0.82536324  0.18348148     0.36200
C1187       C  0.67995286  0.88883860  0.18662573     0.36200
C1188       C  0.56190462  0.83790058  0.07303623     0.36200
C1189       C  0.56040617  0.90115195  0.08447664     0.36200
C1190       C  0.62498270  0.74067559  0.14398266    -0.21300
C1191       C  0.59812518  0.74368779  0.11555134    -0.21300
C1192       C  0.60625524  0.96561615  0.19240798    -0.21300
C1193       C  0.57711745  0.96884630  0.16647524    -0.21300
C1194       C  0.71753526  0.83659327  0.18796602    -0.22300
C1195       C  0.71744711  0.87648598  0.18842447    -0.22300
C1196       C  0.53913359  0.85440869  0.04504965    -0.22300
C1197       C  0.53803025  0.89406552  0.05245178    -0.22300
C1198       C  0.66813347  0.78665311  0.17741883    -0.17700
C1199       C  0.57037945  0.79723224  0.07694689    -0.17700
C1200       C  0.56606232  0.93805988  0.10353324    -0.17700
C1201       C  0.66588559  0.92803201  0.18930404    -0.17700
H1202       H  0.63503601  0.71395578  0.15620208     0.15200
H1203       H  0.58333539  0.71959219  0.10262069     0.15200
H1204       H  0.61185485  0.98540392  0.21583486     0.15200
H1205       H  0.55593717  0.99151476  0.16622265     0.15200
H1206       H  0.74238648  0.81813826  0.18783873     0.13500
H1207       H  0.74261801  0.89352890  0.18826467     0.13500
H1208       H  0.52425500  0.83940500  0.02216368     0.13500
H1209       H  0.52091949  0.91483824  0.03727961     0.13500
H1210       H  0.62529561  0.83260677  0.12634173     0.26800
H1211       H  0.62643225  0.89852404  0.13089162     0.26800
O1212       O  0.70282051  0.49036120  0.66392801    -0.77900
C1213       C  0.81233347  0.54982893  0.68108734     0.83100
O1214       O  0.80306483  0.44359805  0.73680111    -0.79000
O1215       O  0.81536837  0.54615267  0.77529474    -0.80500
O1216       O  0.67872647  0.56413361  0.78454179    -0.80300
O1217       O  0.66549829  0.47409033  0.71114137    -0.78900
Zn1218     Zn  0.74919845  0.49258641  0.69468997     1.55700
O1219       O  0.73725517  0.58970901  0.78915482    -0.80300
Cd1220     Cd  0.68710603  0.51552843  0.74975621     1.59700
Cd1221     Cd  0.76582273  0.47262137  0.77803875     1.59600
O1222       O  0.66990283  0.48163593  0.79066140    -0.80300
O1223       O  0.74102481  0.50972886  0.74364942    -1.90800
Cd1224     Cd  0.76710439  0.55850165  0.74822446     1.59900
O1225       O  0.71799187  0.44010241  0.79844622    -0.80300
O1226       O  0.79423579  0.57578040  0.69968057    -0.78900
C1227       C  0.78960284  0.43293536  0.70397067     0.83600
C1228       C  0.68053154  0.46572945  0.67918103     0.83300
O1229       O  0.79908209  0.51578566  0.67706275    -0.77900
C1230       C  0.70340865  0.58583965  0.80143177     0.84100
O1231       O  0.75525542  0.43810122  0.69740317    -0.78000
C1232       C  0.68280843  0.44991885  0.80248455     0.84200
C1233       C  0.80810673  0.54277750  0.81007152     0.84500
O1234       O  0.78936254  0.51264214  0.82047455    -0.80400
O1235       O  0.92295670  0.04353611  0.49651001    -0.77900
C1236       C  0.92341084  0.93017004  0.56009136     0.83100
O1237       O  0.98331124  0.06360967  0.55866516    -0.79000
O1238       O  0.02581379  0.94724769  0.57684400    -0.80500
O1239       O  0.03344427  0.94759728  0.44067970    -0.80300
O1240       O  0.94667949  0.02663453  0.43964309    -0.78900
Zn1241     Zn  0.94117802  0.99889820  0.52733297     1.55700
O1242       O  0.04250428  0.91544229  0.49503288    -0.80300
Cd1243     Cd  0.98662272  0.98359480  0.45389952     1.59700
Cd1244     Cd  0.02492658  0.02603091  0.52889953     1.59600
O1245       O  0.02029108  0.02127926  0.43025510    -0.80300
O1246       O  0.98847684  0.98782849  0.50864644    -1.90800
Cd1247     Cd  0.99905849  0.93759320  0.52822720     1.59900
O1248       O  0.04517996  0.05508897  0.47857830    -0.80300
O1249       O  0.95481979  0.91292307  0.55636253    -0.78900
C1250       C  0.95211001  0.05202132  0.57441476     0.83600
C1251       C  0.92915576  0.05068614  0.46149556     0.83300
O1252       O  0.91099818  0.95189307  0.53351883    -0.77900
C1253       C  0.05380028  0.92570816  0.46210467     0.84100
O1254       O  0.94788635  0.01636355  0.57915184    -0.78000
C1255       C  0.04084517  0.04841414  0.44244312     0.84200
C1256       C  0.05961811  0.95215333  0.56759052     0.84500
O1257       O  0.06810155  0.98443991  0.55105361    -0.80400
C1258       C  0.55857704  0.05936994  0.74989704     0.80800
N1259       N  0.57292274  0.02633323  0.73413111    -0.77500
C1260       C  0.55539791  0.00888405  0.70370259     0.83300
N1261       N  0.52365176  0.02562431  0.68820634    -0.77400
C1262       C  0.50872722  0.05867693  0.70373202     0.83400
N1263       N  0.52679772  0.07567065  0.73421292    -0.79100
C1264       C  0.74581723  0.05392964  0.56337754     0.80800
N1265       N  0.72644180  0.07007465  0.53342937    -0.77500
C1266       C  0.69364497  0.05397293  0.51962105     0.83300
N1267       N  0.68017563  0.02081726  0.53610469    -0.77400
C1268       C  0.69918266  0.00341926  0.56576044     0.83400
N1269       N  0.73157119  0.02087623  0.57984386    -0.79100
C1270       C  0.55397304  0.24258028  0.55420721     0.80800
N1271       N  0.52238285  0.22803410  0.57175893    -0.77500
C1272       C  0.50316130  0.19682195  0.55686072     0.83300
N1273       N  0.51666912  0.17950667  0.52436166    -0.77400
C1274       C  0.54809270  0.19364777  0.50604266     0.83400
N1275       N  0.56691152  0.22475898  0.52172796    -0.79100
N1276       N  0.62038523  0.12065592  0.47111971    -0.36000
N1277       N  0.57182564  0.14974777  0.40765200    -0.56600
N1278       N  0.61866488  0.10659785  0.35469279    -0.36000
N1279       N  0.66367520  0.07416064  0.41787818    -0.56600
C1280       C  0.59317967  0.14000186  0.49091785     0.27600
C1281       C  0.63951145  0.09722516  0.49606757     0.27600
C1282       C  0.58723419  0.11258220  0.33337674     0.27600
C1283       C  0.63722714  0.07709424  0.33807174     0.27600
C1284       C  0.56056671  0.17427316  0.43599891     0.36200
C1285       C  0.55909357  0.16394337  0.37353594     0.36200
C1286       C  0.68516855  0.06902986  0.44975397     0.36200
C1287       C  0.68620884  0.06641673  0.38759619     0.36200
C1288       C  0.59550420  0.12903862  0.52907164    -0.21300
C1289       C  0.62438435  0.10224354  0.53217918    -0.21300
C1290       C  0.58556934  0.08625231  0.30328763    -0.21300
C1291       C  0.61725605  0.06359353  0.30637888    -0.21300
C1292       C  0.53960080  0.20410042  0.41968207    -0.22300
C1293       C  0.53894612  0.19776837  0.38030485    -0.22300
C1294       C  0.72143787  0.05740836  0.43975574    -0.22300
C1295       C  0.72228583  0.05660720  0.40041940    -0.22300
C1296       C  0.56773285  0.16887332  0.47628126    -0.17700
C1297       C  0.67185785  0.07356429  0.48764561    -0.17700
C1298       C  0.67336549  0.06475284  0.34896961    -0.17700
C1299       C  0.56382710  0.14487194  0.33715075    -0.17700
H1300       H  0.57849186  0.13954212  0.55259008     0.15200
H1301       H  0.63381896  0.08892846  0.55836447     0.15200
H1302       H  0.56430600  0.08402306  0.28090595     0.15200
H1303       H  0.62505417  0.04036847  0.28706038     0.15200
H1304       H  0.52609420  0.22789483  0.43457901     0.13500
H1305       H  0.52465300  0.21554840  0.35925141     0.13500
H1306       H  0.74504594  0.05100716  0.45867950     0.13500
H1307       H  0.74664618  0.04951503  0.38321881     0.13500
H1308       H  0.62656776  0.12502583  0.44251828     0.26800
H1309       H  0.62905225  0.12399193  0.37686105     0.26800
N1310       N  0.46402854  0.12766234  0.63193688    -0.36000
N1311       N  0.40678647  0.08976307  0.68158046    -0.56600
N1312       N  0.34780837  0.13155803  0.64266003    -0.36000
N1313       N  0.40425186  0.17246588  0.59516775    -0.56600
C1314       C  0.48728456  0.10945851  0.65732007     0.27600
C1315       C  0.48555991  0.15283277  0.61126015     0.27600
C1316       C  0.32871272  0.11827465  0.67322051     0.27600
C1317       C  0.32797865  0.16179303  0.62926440     0.27600
C1318       C  0.43828669  0.06947267  0.69201292     0.36200
C1319       C  0.37575039  0.07043134  0.69498457     0.36200
C1320       C  0.43345563  0.18260619  0.57192080     0.36200
C1321       C  0.37129770  0.18259797  0.57745599     0.36200
C1322       C  0.52415928  0.12291197  0.65227673    -0.21300
C1323       C  0.52306804  0.15004028  0.62350562    -0.21300
C1324       C  0.29708164  0.14103828  0.68013098    -0.21300
C1325       C  0.29651441  0.16861827  0.65209769    -0.21300
C1326       C  0.42734737  0.03766426  0.71332391    -0.22300
C1327       C  0.38812626  0.03813336  0.71508938    -0.22300
C1328       C  0.41889018  0.20037519  0.53947911    -0.22300
C1329       C  0.37959692  0.20002252  0.54279323    -0.22300
C1330       C  0.47683474  0.07973470  0.68370265    -0.17700
C1331       C  0.47290887  0.17692187  0.58045247    -0.17700
C1332       C  0.33428754  0.17858195  0.59367490    -0.17700
C1333       C  0.33684137  0.08308047  0.69083169    -0.17700
H1334       H  0.54950847  0.11392886  0.66747752     0.15200
H1335       H  0.54741145  0.16564839  0.61271692     0.15200
H1336       H  0.27618460  0.13798964  0.70247498     0.15200
H1337       H  0.27470511  0.19034516  0.64831650     0.15200
H1338       H  0.44571662  0.01627309  0.72636323     0.13500
H1339       H  0.37123013  0.01753017  0.73074124     0.13500
H1340       H  0.43485828  0.21214402  0.51581638     0.13500
H1341       H  0.35951929  0.21193651  0.52242800     0.13500
H1342       H  0.43538334  0.12180590  0.62793471     0.26800
H1343       H  0.37029691  0.11793283  0.62882297     0.26800
C1344       C  0.69932678  0.20464911  0.74292860     0.80800
N1345       N  0.68250585  0.23687309  0.72751325    -0.77500
C1346       C  0.69770077  0.25490139  0.69622209     0.83300
N1347       N  0.72927809  0.23898894  0.67948263    -0.77400
C1348       C  0.74659424  0.20681913  0.69440361     0.83400
N1349       N  0.73098630  0.18969489  0.72581665    -0.79100
N1350       N  0.62588494  0.29124455  0.62227000    -0.36000
N1351       N  0.66880242  0.35546072  0.65954048    -0.56600
N1352       N  0.62910552  0.40829993  0.61059867    -0.36000
N1353       N  0.58821811  0.34593695  0.57095807    -0.56600
C1354       C  0.64967232  0.27045979  0.64511741     0.27600
C1355       C  0.60623104  0.26592397  0.59934562     0.27600
C1356       C  0.65906319  0.42925112  0.62250702     0.27600
C1357       C  0.61766308  0.42383574  0.57746921     0.27600
C1358       C  0.67893890  0.32587522  0.68307930     0.36200
C1359       C  0.67638032  0.38983551  0.67764738     0.36200
C1360       C  0.56603744  0.31418332  0.56487997     0.36200
C1361       C  0.56727676  0.37764221  0.56175875     0.36200
C1362       C  0.64413312  0.23137234  0.63703378    -0.21300
C1363       C  0.61742988  0.22855480  0.60809496    -0.21300
C1364       C  0.66802963  0.45737257  0.59575208    -0.21300
C1365       C  0.64151093  0.45394645  0.56708447    -0.21300
C1366       C  0.69407509  0.34169544  0.71647485    -0.22300
C1367       C  0.69169555  0.38189288  0.71337056    -0.22300
C1368       C  0.53113244  0.32545985  0.55058615    -0.22300
C1369       C  0.53155155  0.36535522  0.54948166    -0.22300
C1370       C  0.67481370  0.28509284  0.67447009    -0.17700
C1371       C  0.57659383  0.27522815  0.57267018    -0.17700
C1372       C  0.58163429  0.41670206  0.56291577    -0.17700
C1373       C  0.67248053  0.42735703  0.65988692    -0.17700
H1374       H  0.65635317  0.20708376  0.65197205     0.15200
H1375       H  0.60653633  0.20183537  0.59590330     0.15200
H1376       H  0.69022060  0.47906537  0.59703959     0.15200
H1377       H  0.63906710  0.47278819  0.54260454     0.15200
H1378       H  0.70497351  0.32593779  0.74087515     0.13500
H1379       H  0.70111207  0.40272145  0.73454716     0.13500
H1380       H  0.50727957  0.30698570  0.54307277     0.13500
H1381       H  0.50785776  0.38242597  0.54032592     0.13500
H1382       H  0.62237942  0.32098492  0.62330516     0.26800
H1383       H  0.61381047  0.38839179  0.62688819     0.26800
N1384       N  0.62692134  0.96286093  0.63637807    -0.36000
N1385       N  0.66700589  0.90128482  0.59624381    -0.56600
N1386       N  0.61956510  0.84452882  0.63573472    -0.36000
N1387       N  0.57747214  0.90517921  0.67390409    -0.56600
C1388       C  0.64904812  0.98491538  0.61310005     0.27600
C1389       C  0.60237750  0.98686868  0.65480992     0.27600
C1390       C  0.63235900  0.82485415  0.60527833     0.27600
C1391       C  0.58690692  0.82721032  0.64596737     0.27600
C1392       C  0.68811889  0.93165051  0.58339324     0.36200
C1393       C  0.68455685  0.86776267  0.58584323     0.36200
C1394       C  0.56772301  0.93727437  0.69413926     0.36200
C1395       C  0.56610405  0.87363690  0.69412388     0.36200
C1396       C  0.63881997  0.02345866  0.61777663    -0.21300
C1397       C  0.60936919  0.02465364  0.64342216    -0.21300
C1398       C  0.60664673  0.79578071  0.59515359    -0.21300
C1399       C  0.57785270  0.79730034  0.62114638    -0.21300
C1400       C  0.71909347  0.91711315  0.56367986    -0.22300
C1401       C  0.71691085  0.87688066  0.56554883    -0.22300
C1402       C  0.54906450  0.92621149  0.72711182    -0.22300
C1403       C  0.54858871  0.88615806  0.72746243    -0.22300
C1404       C  0.67891684  0.97199800  0.58840363    -0.17700
C1405       C  0.57512553  0.97633970  0.68313892    -0.17700
C1406       C  0.56939104  0.83440091  0.68061611    -0.17700
C1407       C  0.66897475  0.82962116  0.59079191    -0.17700
H1408       H  0.65199238  0.04848810  0.60500081     0.15200
H1409       H  0.59516552  0.05067034  0.65300615     0.15200
H1410       H  0.60781240  0.77529898  0.57176769     0.15200
H1411       H  0.55338920  0.77826801  0.62175388     0.15200
H1412       H  0.74073935  0.93377297  0.54919761     0.13500
H1413       H  0.73559210  0.85647681  0.55182177     0.13500
H1414       H  0.53754614  0.94502289  0.74901511     0.13500
H1415       H  0.53598536  0.86887573  0.74962330     0.13500
H1416       H  0.62892838  0.93327459  0.64041888     0.26800
H1417       H  0.63454490  0.86548866  0.65137657     0.26800
N1418       N  0.78888453  0.13179694  0.62744184    -0.36000
N1419       N  0.84773555  0.17976359  0.66378168    -0.56600
N1420       N  0.90585455  0.13160081  0.62596350    -0.36000
N1421       N  0.84777150  0.08713037  0.58651558    -0.56600
C1422       C  0.76740016  0.16094435  0.64218677     0.27600
C1423       C  0.76704358  0.11189661  0.60181895     0.27600
C1424       C  0.92524774  0.16310766  0.63773322     0.27600
C1425       C  0.92588997  0.11545190  0.59734178     0.27600
C1426       C  0.81677435  0.18959542  0.68500332     0.36200
C1427       C  0.87930285  0.18618166  0.68572104     0.36200
C1428       C  0.81630558  0.06460054  0.58013863     0.36200
C1429       C  0.87924269  0.06457821  0.58123426     0.36200
C1430       C  0.73161179  0.15946147  0.62561861    -0.21300
C1431       C  0.73119008  0.12868175  0.60047312    -0.21300
C1432       C  0.95728856  0.16814476  0.61533832    -0.21300
C1433       C  0.95768540  0.13788346  0.58964425    -0.21300
C1434       C  0.82856942  0.20325637  0.72030257    -0.22300
C1435       C  0.86771530  0.20019397  0.72119588    -0.22300
C1436       C  0.82763508  0.02780564  0.56991782    -0.22300
C1437       C  0.86685632  0.02768898  0.57126724    -0.22300
C1438       C  0.77808964  0.18633994  0.67271060    -0.17700
C1439       C  0.77755244  0.07713548  0.58232173    -0.17700
C1440       C  0.91841566  0.07810343  0.58343946    -0.17700
C1441       C  0.91792342  0.18149217  0.67259263    -0.17700
H1442       H  0.70790765  0.17808082  0.63153929     0.15200
H1443       H  0.70664912  0.11941565  0.58401622     0.15200
H1444       H  0.97875235  0.19053182  0.61767313     0.15200
H1445       H  0.97941071  0.13293982  0.56846099     0.15200
H1446       H  0.81077671  0.21317396  0.74352007     0.13500
H1447       H  0.88496716  0.20752226  0.74571652     0.13500
H1448       H  0.80955121  0.00325805  0.56314751     0.13500
H1449       H  0.88362651  0.00271355  0.56606877     0.13500
H1450       H  0.81605927  0.12411914  0.63632989     0.26800
H1451       H  0.88295610  0.11902024  0.64017167     0.26800
N1452       N  0.63036619  0.13262355  0.78798573    -0.36000
N1453       N  0.68034360  0.16952502  0.84465085    -0.56600
N1454       N  0.64344249  0.12461311  0.90432354    -0.36000
N1455       N  0.59621168  0.08518676  0.84883219    -0.56600
C1456       C  0.65445540  0.15186789  0.76426825     0.27600
C1457       C  0.61014017  0.10674174  0.76656881     0.27600
C1458       C  0.67398380  0.13868644  0.92292495     0.27600
C1459       C  0.63115395  0.09430642  0.92475836     0.27600
C1460       C  0.68882055  0.19165429  0.81365524     0.36200
C1461       C  0.69230296  0.18905811  0.87646910     0.36200
C1462       C  0.57421683  0.07302325  0.81912580     0.36200
C1463       C  0.58062627  0.07110797  0.88144078     0.36200
C1464       C  0.64893675  0.13841041  0.72720224    -0.21300
C1465       C  0.62117704  0.11017900  0.72864867    -0.21300
C1466       C  0.68194491  0.11623700  0.95486254    -0.21300
C1467       C  0.65461845  0.08804201  0.95601678    -0.21300
C1468       C  0.70760981  0.22478599  0.82555773    -0.22300
C1469       C  0.70941494  0.22346766  0.86493094    -0.22300
C1470       C  0.54496539  0.05002066  0.83292394    -0.22300
C1471       C  0.54907109  0.04882553  0.87226492    -0.22300
C1472       C  0.68020562  0.18228100  0.77471974    -0.17700
C1473       C  0.58123572  0.08081862  0.77972278    -0.17700
C1474       C  0.59634280  0.07626377  0.91881587    -0.17700
C1475       C  0.68913931  0.17509307  0.91524278    -0.17700
H1476       H  0.66329895  0.14797326  0.70160336     0.15200
H1477       H  0.61034798  0.09407129  0.70433506     0.15200
H1478       H  0.70395034  0.12022981  0.97618437     0.15200
H1479       H  0.65141192  0.06644894  0.97814759     0.15200
H1480       H  0.71840991  0.24789023  0.80777457     0.13500
H1481       H  0.72279581  0.24544911  0.88222732     0.13500
H1482       H  0.52335783  0.03501226  0.81632880     0.13500
H1483       H  0.53221607  0.03157478  0.89146964     0.13500
H1484       H  0.62678964  0.13786801  0.81692472     0.26800
H1485       H  0.62891001  0.13813019  0.88207132     0.26800
C1486       C  0.01101589  0.69572132  0.55068128     0.80800
N1487       N  0.02726723  0.67897564  0.51926058    -0.77500
C1488       C  0.05972114  0.69374221  0.50373866     0.83300
N1489       N  0.07653311  0.72523031  0.52059090    -0.77400
C1490       C  0.06106737  0.74260727  0.55201692     0.83400
N1491       N  0.02869384  0.72704972  0.56748587    -0.79100
N1492       N  0.13144063  0.62376838  0.46092071    -0.36000
N1493       N  0.17907553  0.59236967  0.40260213    -0.56600
N1494       N  0.12931798  0.63129517  0.34360677    -0.36000
N1495       N  0.08586263  0.66669331  0.40175037    -0.56600
C1496       C  0.15855156  0.60639323  0.48300478     0.27600
C1497       C  0.11248654  0.64944523  0.48326086     0.27600
C1498       C  0.16164751  0.62400591  0.32481301     0.27600
C1499       C  0.11049637  0.65839144  0.32317532     0.27600
C1500       C  0.19139155  0.56949769  0.43172288     0.36200
C1501       C  0.19174802  0.57669530  0.36947607     0.36200
C1502       C  0.06590081  0.67410284  0.43420228     0.36200
C1503       C  0.06205066  0.67227409  0.37124082     0.36200
C1504       C  0.15625291  0.62080355  0.51992909    -0.21300
C1505       C  0.12750931  0.64777414  0.51996788    -0.21300
C1506       C  0.16402714  0.64720405  0.29257789    -0.21300
C1507       C  0.13157752  0.66906641  0.29153254    -0.21300
C1508       C  0.21285435  0.53937149  0.41696486    -0.22300
C1509       C  0.21300012  0.54386105  0.37757498    -0.22300
C1510       C  0.02946674  0.68529429  0.42449817    -0.22300
C1511       C  0.02679982  0.68324857  0.38524303    -0.22300
C1512       C  0.18426047  0.57675080  0.47128879    -0.17700
C1513       C  0.08018570  0.67210185  0.47246805    -0.17700
C1514       C  0.07345052  0.67030859  0.33149948    -0.17700
C1515       C  0.18557862  0.59275087  0.33242816    -0.17700
H1516       H  0.17322092  0.61256383  0.54450482     0.15200
H1517       H  0.11792666  0.66332301  0.54469249     0.15200
H1518       H  0.18637023  0.64739156  0.27138601     0.15200
H1519       H  0.12486332  0.69023099  0.26987913     0.15200
H1520       H  0.22689745  0.51662328  0.43286304     0.13500
H1521       H  0.22741301  0.52534497  0.35727758     0.13500
H1522       H  0.00666736  0.69307491  0.44370476     0.13500
H1523       H  0.00121555  0.68891067  0.36977627     0.13500
H1524       H  0.12466320  0.61722771  0.43271382     0.26800
H1525       H  0.11897190  0.61556415  0.36671608     0.26800
C1526       C  0.25109215  0.69159226  0.69620676     0.80800
N1527       N  0.23689999  0.72273668  0.67679232    -0.77500
C1528       C  0.20653279  0.74305451  0.69048537     0.83300
N1529       N  0.18968425  0.73107654  0.72358909    -0.77400
C1530       C  0.20343161  0.70000165  0.74353884     0.83400
N1531       N  0.23380479  0.68009845  0.72922943    -0.79100
C1532       C  0.20026574  0.50410987  0.54976022     0.80800
N1533       N  0.18617241  0.52195657  0.51777872    -0.77500
C1534       C  0.20403858  0.55352670  0.50236396     0.83300
N1535       N  0.23574205  0.56811188  0.52047137    -0.77400
C1536       C  0.25028119  0.55080703  0.55259863     0.83400
N1537       N  0.23191015  0.51923418  0.56720012    -0.79100
N1538       N  0.29271070  0.61874385  0.62737779    -0.36000
N1539       N  0.35157858  0.57529013  0.58668846    -0.56600
N1540       N  0.41037004  0.61560131  0.63159116    -0.36000
N1541       N  0.35172369  0.65563199  0.67544058    -0.56600
C1542       C  0.27067209  0.59255422  0.60833279     0.27600
C1543       C  0.27083073  0.63592113  0.65444729     0.27600
C1544       C  0.43013996  0.58604598  0.61617525     0.27600
C1545       C  0.43013837  0.62814145  0.66247154     0.27600
C1546       C  0.32053238  0.56609249  0.56477344     0.36200
C1547       C  0.38328509  0.56644291  0.56616180     0.36200
C1548       C  0.32084478  0.67767129  0.68440820     0.36200
C1549       C  0.38336272  0.67632891  0.68544330     0.36200
C1550       C  0.23435525  0.59328522  0.62365016    -0.21300
C1551       C  0.23441586  0.62055045  0.65256696    -0.21300
C1552       C  0.46225043  0.57883836  0.63826611    -0.21300
C1553       C  0.46228459  0.60558279  0.66752141    -0.21300
C1554       C  0.33236493  0.55039146  0.53052468    -0.22300
C1555       C  0.37154598  0.55088776  0.53113665    -0.22300
C1556       C  0.33259943  0.71193574  0.70104097    -0.22300
C1557       C  0.37160917  0.71140255  0.70130614    -0.22300
C1558       C  0.28162385  0.57025503  0.57577479    -0.17700
C1559       C  0.28201943  0.66723946  0.67855560    -0.17700
C1560       C  0.42214320  0.66282162  0.68184971    -0.17700
C1561       C  0.42212570  0.57001134  0.57999285    -0.17700
H1562       H  0.20998672  0.57653653  0.61455225     0.15200
H1563       H  0.21014168  0.62859493  0.66975066     0.15200
H1564       H  0.48370318  0.55690432  0.63401710     0.15200
H1565       H  0.48379148  0.60809277  0.68962391     0.15200
H1566       H  0.31462556  0.53971839  0.50733241     0.13500
H1567       H  0.38850550  0.53991990  0.50810387     0.13500
H1568       H  0.31492138  0.73533371  0.71140957     0.13500
H1569       H  0.38824418  0.73496462  0.71228749     0.13500
H1570       H  0.32040982  0.62644340  0.62063222     0.26800
H1571       H  0.38706190  0.62936415  0.61914986     0.26800
C1572       C  0.06138330  0.55898882  0.74620050     0.80800
N1573       N  0.07933541  0.52804874  0.72957809    -0.77500
C1574       C  0.06472730  0.51104695  0.69718869     0.83300
N1575       N  0.03271930  0.52594961  0.68095279    -0.77400
C1576       C  0.01473575  0.55694778  0.69675913     0.83400
N1577       N  0.02948202  0.57364886  0.72908087    -0.79100
N1578       N  0.13157512  0.46505722  0.62450776    -0.36000
N1579       N  0.15957485  0.40403294  0.57389711    -0.56600
N1580       N  0.11692717  0.34627387  0.61976919    -0.36000
N1581       N  0.08632565  0.40718672  0.66726386    -0.56600
C1582       C  0.15128980  0.48705457  0.59907164     0.27600
C1583       C  0.11111951  0.48929934  0.64721659     0.27600
C1584       C  0.12593878  0.32603347  0.58824549     0.27600
C1585       C  0.08798213  0.32683636  0.63594832     0.27600
C1586       C  0.18171573  0.43350971  0.56095655     0.36200
C1587       C  0.17346036  0.37041595  0.55928381     0.36200
C1588       C  0.07371721  0.43988568  0.68489242     0.36200
C1589       C  0.06675792  0.37667690  0.68203707     0.36200
C1590       C  0.14335536  0.52578615  0.60609237    -0.21300
C1591       C  0.11866055  0.52719860  0.63648346    -0.21300
C1592       C  0.10229106  0.29405003  0.58389800    -0.21300
C1593       C  0.07825109  0.29448695  0.61424112    -0.21300
C1594       C  0.20947176  0.41846905  0.53711941    -0.22300
C1595       C  0.20438580  0.37863921  0.53621900    -0.22300
C1596       C  0.04560653  0.43015408  0.71069405    -0.22300
C1597       C  0.04081069  0.39067170  0.70843619    -0.22300
C1598       C  0.17693197  0.47368429  0.57018182    -0.17700
C1599       C  0.08520085  0.47875329  0.67689395    -0.17700
C1600       C  0.07015884  0.33695264  0.66997732    -0.17700
C1601       C  0.15759199  0.33280815  0.56569491    -0.17700
H1602       H  0.15382403  0.55063727  0.59060169     0.15200
H1603       H  0.10755015  0.55336741  0.64919139     0.15200
H1604       H  0.10283048  0.27233268  0.56143162     0.15200
H1605       H  0.05599804  0.27347335  0.61957370     0.15200
H1606       H  0.23129107  0.43446855  0.52216732     0.13500
H1607       H  0.22119600  0.35823877  0.51997168     0.13500
H1608       H  0.02888077  0.44966239  0.72810991     0.13500
H1609       H  0.01832984  0.37517677  0.72247072     0.13500
H1610       H  0.13241077  0.43524475  0.62675031     0.26800
H1611       H  0.13174819  0.36988326  0.63098173     0.26800
N1612       N  0.97103556  0.62495321  0.62341738    -0.36000
N1613       N  0.91530011  0.57358643  0.65951215    -0.56600
N1614       N  0.85809337  0.60634386  0.61038141    -0.36000
N1615       N  0.91216440  0.65541709  0.57175669    -0.56600
C1616       C  0.99430478  0.60151732  0.64420350     0.27600
C1617       C  0.99290581  0.64483091  0.59812381     0.27600
C1618       C  0.84037679  0.57488297  0.62378135     0.27600
C1619       C  0.83845167  0.61722772  0.57935250     0.27600
C1620       C  0.94511013  0.56679853  0.68309947     0.36200
C1621       C  0.88363791  0.56012291  0.67699081     0.36200
C1622       C  0.94091389  0.68023862  0.56325611     0.36200
C1623       C  0.87883753  0.67185180  0.56034453     0.36200
C1624       C  0.03144986  0.60726375  0.63234165    -0.21300
C1625       C  0.03062037  0.63422002  0.60346255    -0.21300
C1626       C  0.80984003  0.56480197  0.60044802    -0.21300
C1627       C  0.80867539  0.59180401  0.57198412    -0.21300
C1628       C  0.93245951  0.54764236  0.71548889    -0.22300
C1629       C  0.89337490  0.54388792  0.71182627    -0.22300
C1630       C  0.92579911  0.71240501  0.54502914    -0.22300
C1631       C  0.88650972  0.70744533  0.54391852    -0.22300
C1632       C  0.98353279  0.57626945  0.67468165    -0.17700
C1633       C  0.98035492  0.67363479  0.57157014    -0.17700
C1634       C  0.84233542  0.65349424  0.56322908    -0.17700
C1635       C  0.84684012  0.56046092  0.66011721    -0.17700
H1636       H  0.05678289  0.59390979  0.64367267     0.15200
H1637       H  0.05526570  0.64505945  0.58847213     0.15200
H1638       H  0.78916058  0.54203424  0.60493563     0.15200
H1639       H  0.78699075  0.59403483  0.54999520     0.15200
H1640       H  0.94956159  0.53756077  0.73927283     0.13500
H1641       H  0.87459376  0.52970506  0.73177889     0.13500
H1642       H  0.94134821  0.73721666  0.53444755     0.13500
H1643       H  0.86605137  0.72739427  0.53188811     0.13500
H1644       H  0.94208757  0.62842060  0.62738887     0.26800
H1645       H  0.87859952  0.62274984  0.62474999     0.26800
N1646       N  0.13761978  0.78496809  0.61756094    -0.36000
N1647       N  0.18384486  0.84568823  0.65420953    -0.56600
N1648       N  0.13961090  0.90566237  0.61537507    -0.36000
N1649       N  0.09524476  0.84569586  0.57603350    -0.56600
C1650       C  0.16124775  0.76188606  0.63812391     0.27600
C1651       C  0.11436103  0.76178936  0.59643016     0.27600
C1652       C  0.16968936  0.92638830  0.62792702     0.27600
C1653       C  0.12286943  0.92641527  0.58748334     0.27600
C1654       C  0.19582724  0.81410356  0.67449462     0.36200
C1655       C  0.19570053  0.87814687  0.67337245     0.36200
C1656       C  0.07324600  0.81377521  0.56825741     0.36200
C1657       C  0.07344709  0.87792213  0.57028614     0.36200
C1658       C  0.15294919  0.72344794  0.62977742    -0.21300
C1659       C  0.12314569  0.72346348  0.60412511    -0.21300
C1660       C  0.17303184  0.96019413  0.60700553    -0.21300
C1661       C  0.14333499  0.96019653  0.58122318    -0.21300
C1662       C  0.21653671  0.82628073  0.70572704    -0.22300
C1663       C  0.21624298  0.86592864  0.70507906    -0.22300
C1664       C  0.03779606  0.82548769  0.55650626    -0.22300
C1665       C  0.03761124  0.86518501  0.55894442    -0.22300
C1666       C  0.18809928  0.77420443  0.66628336    -0.17700
C1667       C  0.08364579  0.77395761  0.57263134    -0.17700
C1668       C  0.08641051  0.91807005  0.57340429    -0.17700
C1669       C  0.18907557  0.91812114  0.66189266    -0.17700
H1670       H  0.16577968  0.69789809  0.64215078     0.15200
H1671       H  0.10774969  0.69811055  0.59475571     0.15200
H1672       H  0.19393511  0.98299509  0.61056050     0.15200
H1673       H  0.13717357  0.98306558  0.56111643     0.15200
H1674       H  0.23024255  0.80851421  0.72718845     0.13500
H1675       H  0.23121258  0.88246807  0.72554803     0.13500
H1676       H  0.01380419  0.80730242  0.54873569     0.13500
H1677       H  0.01307576  0.88162665  0.55291429     0.13500
H1678       H  0.13632650  0.81481012  0.61896835     0.26800
H1679       H  0.12819722  0.88129940  0.62860246     0.26800
N1680       N  0.13059490  0.63274630  0.78775204    -0.36000
N1681       N  0.08236737  0.59703182  0.84630355    -0.56600
N1682       N  0.11897453  0.64635399  0.89999220    -0.36000
N1683       N  0.16636515  0.68420688  0.84423989    -0.56600
C1684       C  0.10392384  0.61404677  0.76601458     0.27600
C1685       C  0.14835331  0.65922646  0.76512937     0.27600
C1686       C  0.08652520  0.63628418  0.91711004     0.27600
C1687       C  0.12872700  0.68105774  0.91407400     0.27600
C1688       C  0.07467521  0.57265124  0.81683995     0.36200
C1689       C  0.07207808  0.57935864  0.87938663     0.36200
C1690       C  0.19038444  0.68980049  0.81472792     0.36200
C1691       C  0.18478762  0.69387065  0.87725548     0.36200
C1692       C  0.10479447  0.62903880  0.72922919    -0.21300
C1693       C  0.13258857  0.65725966  0.72868014    -0.21300
C1694       C  0.07432391  0.66559843  0.94127253    -0.21300
C1695       C  0.10080953  0.69471069  0.93855740    -0.21300
C1696       C  0.05820015  0.53910532  0.83120300    -0.22300
C1697       C  0.05704570  0.54314096  0.87089171    -0.22300
C1698       C  0.22451041  0.70449551  0.82896383    -0.22300
C1699       C  0.22112790  0.70646965  0.86869567    -0.22300
C1700       C  0.08075341  0.58197649  0.77750826    -0.17700
C1701       C  0.18035167  0.68286283  0.77558907    -0.17700
C1702       C  0.16651815  0.69289006  0.91361810    -0.17700
C1703       C  0.07341927  0.59841864  0.91580986    -0.17700
H1704       H  0.08766747  0.62017974  0.70490185     0.15200
H1705       H  0.14060321  0.67393022  0.70388691     0.15200
H1706       H  0.05046579  0.66533528  0.96053995     0.15200
H1707       H  0.10155448  0.72101762  0.95557966     0.15200
H1708       H  0.04812001  0.51436937  0.81486124     0.13500
H1709       H  0.04536620  0.52248495  0.89087663     0.13500
H1710       H  0.24927627  0.71260024  0.81256228     0.13500
H1711       H  0.24230140  0.71718231  0.88863706     0.13500
H1712       H  0.13801113  0.62599473  0.81577694     0.26800
H1713       H  0.13662278  0.62785362  0.88438672     0.26800
C1714       C  0.76781179  0.30663980  0.30917909     0.80800
N1715       N  0.78397252  0.27461364  0.32521877    -0.77500
C1716       C  0.81530482  0.25779206  0.30944087     0.83300
N1717       N  0.83116120  0.27409314  0.27779978    -0.77400
C1718       C  0.81526094  0.30601858  0.26122072     0.83400
N1719       N  0.78394726  0.32248093  0.27746077    -0.79100
N1720       N  0.72039445  0.37429727  0.38028684    -0.36000
N1721       N  0.66633047  0.32835791  0.33554525    -0.56600
N1722       N  0.60422922  0.36184644  0.37864209    -0.36000
N1723       N  0.65855771  0.40378653  0.42728760    -0.56600
C1724       C  0.74413143  0.34881185  0.36281872     0.27600
C1725       C  0.74003650  0.39133273  0.40934852     0.27600
C1726       C  0.58693899  0.33210353  0.36065622     0.27600
C1727       C  0.58335266  0.36948068  0.40976929     0.27600
C1728       C  0.69832720  0.32379956  0.31450081     0.36200
C1729       C  0.63628835  0.32120544  0.31205257     0.36200
C1730       C  0.68689587  0.42735949  0.44027520     0.36200
C1731       C  0.62513394  0.41861547  0.43991670     0.36200
C1732       C  0.77921869  0.34996006  0.38093025    -0.21300
C1733       C  0.77673422  0.37673403  0.41001676    -0.21300
C1734       C  0.55543250  0.31990963  0.38116504    -0.21300
C1735       C  0.55288946  0.34410951  0.41217075    -0.21300
C1736       C  0.68887658  0.31336211  0.27744357    -0.22300
C1737       C  0.64973553  0.31266500  0.27555738    -0.22300
C1738       C  0.67140056  0.45685703  0.46220093    -0.22300
C1739       C  0.63235714  0.45138776  0.46183400    -0.22300
C1740       C  0.73580928  0.32692248  0.32924456    -0.17700
C1741       C  0.72648956  0.42116992  0.43390754    -0.17700
C1742       C  0.58859550  0.40176348  0.43301827    -0.17700
C1743       C  0.59759177  0.31843475  0.32473411    -0.17700
H1744       H  0.80433790  0.33389434  0.37355469     0.15200
H1745       H  0.79956117  0.38456938  0.42929350     0.15200
H1746       H  0.53603071  0.29640945  0.37452244     0.15200
H1747       H  0.53092671  0.34355701  0.43374426     0.15200
H1748       H  0.70810227  0.30756858  0.25404374     0.13500
H1749       H  0.63342709  0.30652010  0.24994622     0.13500
H1750       H  0.68662803  0.47973434  0.47709984     0.13500
H1751       H  0.61173233  0.46903903  0.47661381     0.13500
H1752       H  0.69306807  0.38152176  0.37149338     0.26800
H1753       H  0.62676189  0.37836538  0.36831284     0.26800
C1754       C  0.75616317  0.44463445  0.45480787     0.80800
N1755       N  0.77344364  0.42903165  0.48616096    -0.77500
C1756       C  0.80587057  0.44489483  0.50100779     0.83300
N1757       N  0.82146072  0.47656482  0.48389103    -0.77400
C1758       C  0.80458567  0.49291101  0.45263921     0.83400
N1759       N  0.77236331  0.47622339  0.43771101    -0.79100
C1760       C  0.95041932  0.45578837  0.26460522     0.80800
N1761       N  0.98110901  0.43997639  0.28291981    -0.77500
C1762       C  0.99557971  0.45630104  0.31560256     0.83300
N1763       N  0.97817605  0.48816028  0.33060875    -0.77400
C1764       C  0.94735409  0.50438294  0.31292030     0.83400
N1765       N  0.93320041  0.48752214  0.28033124    -0.79100
C1766       C  0.99757398  0.30914918  0.45512368     0.80800
N1767       N  0.98226610  0.27610209  0.43948610    -0.77500
C1768       C  0.95244479  0.25747598  0.45655230     0.83300
N1769       N  0.93718427  0.27300634  0.48897972    -0.77400
C1770       C  0.95159892  0.30604822  0.50512297     0.83400
N1771       N  0.98136271  0.32440651  0.48748005    -0.79100
N1772       N  0.03781404  0.38526865  0.38735100    -0.36000
N1773       N  0.09606563  0.42711783  0.34366619    -0.56600
N1774       N  0.15789716  0.38463275  0.38318595    -0.36000
N1775       N  0.09833537  0.33864725  0.42239385    -0.56600
C1776       C  0.01508862  0.40499612  0.36264111     0.27600
C1777       C  0.01577708  0.35929279  0.40623190     0.27600
C1778       C  0.17774193  0.40270644  0.35536276     0.27600
C1779       C  0.17927880  0.35433391  0.39483545     0.27600
C1780       C  0.06471232  0.44814779  0.33416210     0.36200
C1781       C  0.12694482  0.44868044  0.33418240     0.36200
C1782       C  0.06737185  0.32143132  0.43888408     0.36200
C1783       C  0.12989113  0.31819591  0.43287444     0.36200
C1784       C  0.97810184  0.39165743  0.36638637    -0.21300
C1785       C  0.97846468  0.36325988  0.39389567    -0.21300
C1786       C  0.21207013  0.38383932  0.34966595    -0.21300
C1787       C  0.21317955  0.35367996  0.37474707    -0.21300
C1788       C  0.07566524  0.48311344  0.31847294    -0.22300
C1789       C  0.11475814  0.48382883  0.31919825    -0.22300
C1790       C  0.07916019  0.28982031  0.45963024    -0.22300
C1791       C  0.11777739  0.28713946  0.45498325    -0.22300
C1792       C  0.02626076  0.43577064  0.33796572    -0.17700
C1793       C  0.02812423  0.33155562  0.43374227    -0.17700
C1794       C  0.16901783  0.32597812  0.42176383    -0.17700
C1795       C  0.16567658  0.43556002  0.33479115    -0.17700
H1796       H  0.95324138  0.40146372  0.35111878     0.15200
H1797       H  0.95398221  0.34700379  0.40323684     0.15200
H1798       H  0.23374395  0.38976842  0.32868712     0.15200
H1799       H  0.23581825  0.33255995  0.37653316     0.15200
H1800       H  0.05738865  0.50600892  0.30807717     0.13500
H1801       H  0.13213572  0.50767296  0.30952640     0.13500
H1802       H  0.06152830  0.26932343  0.47483393     0.13500
H1803       H  0.13382304  0.26316173  0.46543073     0.13500
H1804       H  0.06654919  0.38998058  0.39180852     0.26800
H1805       H  0.13170635  0.39297619  0.39399727     0.26800
N1806       N  0.87799068  0.37624001  0.54530841    -0.36000
N1807       N  0.82750837  0.41302598  0.60285901    -0.56600
N1808       N  0.86088979  0.36683406  0.66165260    -0.36000
N1809       N  0.90859216  0.32598578  0.60377606    -0.56600
C1810       C  0.85620669  0.39824808  0.52175533     0.27600
C1811       C  0.90172047  0.35459824  0.52319168     0.27600
C1812       C  0.83109082  0.38118109  0.68102843     0.27600
C1813       C  0.87095677  0.33445606  0.68005785     0.27600
C1814       C  0.81471140  0.43128232  0.57092277     0.36200
C1815       C  0.80863224  0.42817691  0.63334988     0.36200
C1816       C  0.93198670  0.31466543  0.57497251     0.36200
C1817       C  0.92135235  0.30963619  0.63661863     0.36200
C1818       C  0.86683590  0.39099269  0.48427627    -0.21300
C1819       C  0.89535949  0.36386100  0.48514008    -0.21300
C1820       C  0.82182158  0.35749827  0.71152718    -0.21300
C1821       C  0.84716415  0.32770887  0.71086760    -0.21300
C1822       C  0.78709149  0.45775318  0.58097749    -0.22300
C1823       C  0.78327838  0.45573242  0.61995605    -0.22300
C1824       C  0.95936951  0.28988087  0.58957146    -0.22300
C1825       C  0.95275707  0.28689113  0.62848339    -0.22300
C1826       C  0.82671049  0.42446289  0.53257389    -0.17700
C1827       C  0.92871257  0.32636634  0.53582139    -0.17700
C1828       C  0.90410974  0.31402408  0.67334508    -0.17700
C1829       C  0.81241174  0.41544276  0.67239978    -0.17700
H1830       H  0.85521051  0.40374067  0.45871865     0.15200
H1831       H  0.90958813  0.35221050  0.46033360     0.15200
H1832       H  0.79917591  0.36128312  0.73205858     0.15200
H1833       H  0.84862319  0.30419320  0.73123148     0.15200
H1834       H  0.77091953  0.47642520  0.56216681     0.13500
H1835       H  0.76277875  0.47199114  0.63561313     0.13500
H1836       H  0.98188970  0.27565744  0.57392031     0.13500
H1837       H  0.96871215  0.26926003  0.64827438     0.13500
H1838       H  0.87650979  0.37627035  0.57475861     0.26800
H1839       H  0.87569770  0.37998796  0.63952612     0.26800
N1840       N  0.88513586  0.37918671  0.22073019    -0.36000
N1841       N  0.92814203  0.42216726  0.16254146    -0.56600
N1842       N  0.89071436  0.37585674  0.10403553    -0.36000
N1843       N  0.84939836  0.33097479  0.16137188    -0.56600
C1844       C  0.90537470  0.40334227  0.24405218     0.27600
C1845       C  0.86328992  0.35598937  0.24310304     0.27600
C1846       C  0.92020160  0.39102517  0.08472431     0.27600
C1847       C  0.87983169  0.34400096  0.08453672     0.27600
C1848       C  0.93832131  0.44341091  0.19383380     0.36200
C1849       C  0.93891246  0.44206377  0.13086055     0.36200
C1850       C  0.82855847  0.31862687  0.19144223     0.36200
C1851       C  0.83226961  0.31770401  0.12901331     0.36200
C1852       C  0.89590179  0.39545740  0.28171846    -0.21300
C1853       C  0.86975015  0.36575786  0.28116921    -0.21300
C1854       C  0.92889437  0.36769306  0.05349135    -0.21300
C1855       C  0.90296716  0.33806712  0.05321616    -0.21300
C1856       C  0.95667339  0.47679336  0.18204531    -0.22300
C1857       C  0.95659762  0.47626570  0.14248224    -0.22300
C1858       C  0.79820146  0.29650813  0.17803652    -0.22300
C1859       C  0.80034739  0.29624814  0.13849171    -0.22300
C1860       C  0.93106995  0.43339459  0.23281967    -0.17700
C1861       C  0.83650691  0.32722611  0.23065023    -0.17700
C1862       C  0.84659055  0.32340189  0.09147616    -0.17700
C1863       C  0.93525144  0.42787951  0.09217910    -0.17700
H1864       H  0.90568547  0.41048216  0.30709812     0.15200
H1865       H  0.85626658  0.35355097  0.30613406     0.15200
H1866       H  0.95127960  0.37122160  0.03276911     0.15200
H1867       H  0.90083230  0.31513936  0.03204179     0.15200
H1868       H  0.96834740  0.49956171  0.20004155     0.13500
H1869       H  0.96907534  0.49841261  0.12483160     0.13500
H1870       H  0.77648791  0.28249132  0.19493682     0.13500
H1871       H  0.78110120  0.28139442  0.11906887     0.13500
H1872       H  0.88583457  0.37895074  0.19122604     0.26800
H1873       H  0.87608104  0.38883856  0.12653572     0.26800
N1874       N  0.87357851  0.54056675  0.38340021    -0.36000
N1875       N  0.83512771  0.59618892  0.43371611    -0.56600
N1876       N  0.87770453  0.65685575  0.39773886    -0.36000
N1877       N  0.91842219  0.60325757  0.34968706    -0.56600
C1878       C  0.85551522  0.51601194  0.40766915     0.27600
C1879       C  0.90014463  0.51987648  0.36397543     0.27600
C1880       C  0.86525557  0.67362333  0.42991488     0.27600
C1881       C  0.90829135  0.67700767  0.38690144     0.27600
C1882       C  0.81305679  0.56436085  0.43906630     0.36200
C1883       C  0.81417629  0.62789586  0.44311135     0.36200
C1884       C  0.92762309  0.57409187  0.32542883     0.36200
C1885       C  0.92573558  0.63731379  0.33183670     0.36200
C1886       C  0.87030256  0.47913782  0.40294460    -0.21300
C1887       C  0.89834391  0.48153588  0.37572000    -0.21300
C1888       C  0.88910628  0.70376602  0.44078400    -0.21300
C1889       C  0.91665452  0.70589983  0.41338889    -0.21300
C1890       C  0.77811658  0.57553829  0.45311557    -0.22300
C1891       C  0.77842945  0.61553997  0.45473548    -0.22300
C1892       C  0.94190297  0.58969121  0.29190847    -0.22300
C1893       C  0.94000102  0.62974832  0.29567431    -0.22300
C1894       C  0.82455663  0.52543952  0.43222725    -0.17700
C1895       C  0.92428302  0.53390992  0.33427813    -0.17700
C1896       C  0.92244204  0.67426326  0.35008677    -0.17700
C1897       C  0.82885791  0.66691773  0.44323286    -0.17700
H1898       H  0.86120204  0.45291094  0.41684245     0.15200
H1899       H  0.91481939  0.45740570  0.36517936     0.15200
H1900       H  0.88613306  0.72351313  0.46460052     0.15200
H1901       H  0.93893340  0.72750081  0.41241358     0.15200
H1902       H  0.75448763  0.55690094  0.46049830     0.13500
H1903       H  0.75484785  0.63272908  0.46406752     0.13500
H1904       H  0.95201200  0.57390784  0.26715457     0.13500
H1905       H  0.94884838  0.65071454  0.27459130     0.13500
H1906       H  0.86687613  0.56946304  0.37905913     0.26800
H1907       H  0.86279325  0.63675111  0.38098707     0.26800
N1908       N  0.88338927  0.21472198  0.38291834    -0.36000
N1909       N  0.91438430  0.15629563  0.43404136    -0.56600
N1910       N  0.87064823  0.09757672  0.39063668    -0.36000
N1911       N  0.83713640  0.15553409  0.34243542    -0.56600
C1912       C  0.90367362  0.23782765  0.40737765     0.27600
C1913       C  0.86126298  0.23794542  0.36070714     0.27600
C1914       C  0.87928552  0.07965952  0.42360844     0.27600
C1915       C  0.84047531  0.07849652  0.37570852     0.27600
C1916       C  0.93665116  0.18628541  0.44573089     0.36200
C1917       C  0.92888071  0.12342026  0.44935021     0.36200
C1918       C  0.82802652  0.18677069  0.32087050     0.36200
C1919       C  0.82469815  0.12334563  0.32352664     0.36200
C1920       C  0.89454264  0.27614150  0.40006416    -0.21300
C1921       C  0.86837106  0.27622985  0.37070363    -0.21300
C1922       C  0.85404260  0.04977414  0.43050425    -0.21300
C1923       C  0.82937069  0.04901696  0.40030164    -0.21300
C1924       C  0.96516959  0.17236645  0.46957788    -0.22300
C1925       C  0.96045189  0.13250736  0.47157709    -0.22300
C1926       C  0.80878493  0.17446763  0.28826641    -0.22300
C1927       C  0.80692235  0.13448331  0.28975049    -0.22300
C1928       C  0.93092817  0.22590261  0.43556259    -0.17700
C1929       C  0.83572028  0.22622021  0.33074018    -0.17700
C1930       C  0.82629862  0.08485195  0.33864075    -0.17700
C1931       C  0.91232604  0.08599060  0.44474175    -0.17700
H1932       H  0.90578309  0.30161705  0.41415068     0.15200
H1933       H  0.85691493  0.30184188  0.35739700     0.15200
H1934       H  0.85407844  0.02991737  0.45440865     0.15200
H1935       H  0.80637211  0.02849176  0.39760995     0.15200
H1936       H  0.98720149  0.18911811  0.48379940     0.13500
H1937       H  0.97780353  0.11265037  0.48796665     0.13500
H1938       H  0.79721032  0.19242136  0.26573150     0.13500
H1939       H  0.79256857  0.11626250  0.26898778     0.13500
H1940       H  0.88518988  0.18490283  0.38071717     0.26800
H1941       H  0.88701211  0.11865504  0.37716359     0.26800
O1942       O  0.03143971  0.30636631  0.82806128    -0.77900
C1943       C  0.95705148  0.19645012  0.83262668     0.83100
O1944       O  0.04974232  0.18693080  0.76598689    -0.79000
O1945       O  0.94885634  0.18301015  0.73287383    -0.80500
O1946       O  0.94112438  0.32461161  0.72936552    -0.80300
O1947       O  0.03909769  0.33369148  0.77140486    -0.78900
Zn1948     Zn  0.01707869  0.25449345  0.80848804     1.55700
O1949       O  0.91856325  0.26535424  0.71820785    -0.80300
Cd1950     Cd  0.99427219  0.30824051  0.74327562     1.59700
Cd1951     Cd  0.02730439  0.22659455  0.72351019     1.59600
O1952       O  0.01235485  0.31122241  0.69043834    -0.80300
O1953       O  0.99622460  0.25570213  0.75972485    -1.90800
Cd1954     Cd  0.94624670  0.23370374  0.75962172     1.59900
O1955       O  0.06165861  0.27349199  0.70022591    -0.80300
O1956       O  0.93163785  0.21175620  0.81129489    -0.78900
C1957       C  0.06291423  0.19941616  0.79823547     0.83600
C1958       C  0.05071303  0.32713283  0.80503144     0.83300
O1959       O  0.98999810  0.21124823  0.83645160    -0.77900
C1960       C  0.92280089  0.30043271  0.70843142     0.84100
O1961       O  0.06746582  0.23512490  0.80209557    -0.78000
C1962       C  0.04737570  0.30567601  0.68813718     0.84200
C1963       C  0.95168526  0.19004525  0.69783788     0.84500
O1964       O  0.98242082  0.20610117  0.68589140    -0.80400
C1965       C  0.04556915  0.19973784  0.00579471     0.80800
N1966       N  0.01286133  0.18626614  0.02233377    -0.77500
C1967       C  0.99827052  0.20340396  0.05444893     0.83300
N1968       N  0.01760025  0.23368528  0.07080543    -0.77400
C1969       C  0.05036223  0.24773688  0.05520010     0.83400
N1970       N  0.06450172  0.23015124  0.02295827    -0.79100
N1971       N  0.12284406  0.28825277  0.12793685    -0.36000
N1972       N  0.07608803  0.34873297  0.09163437    -0.56600
N1973       N  0.11882110  0.40529898  0.13466225    -0.36000
N1974       N  0.16367002  0.34639022  0.17360205    -0.56600
C1975       C  0.09790687  0.26604994  0.10720200     0.27600
C1976       C  0.14134650  0.26483658  0.15344091     0.27600
C1977       C  0.08645800  0.42407649  0.12646132     0.27600
C1978       C  0.13335463  0.42265826  0.16581295     0.27600
C1979       C  0.06569227  0.31857703  0.06882278     0.36200
C1980       C  0.06346843  0.38197628  0.07507718     0.36200
C1981       C  0.18396745  0.31482213  0.18418263     0.36200
C1982       C  0.18475973  0.37849885  0.18170183     0.36200
C1983       C  0.10140530  0.22802748  0.11931623    -0.21300
C1984       C  0.12806582  0.22728101  0.14842698    -0.21300
C1985       C  0.07940778  0.45280236  0.15320626    -0.21300
C1986       C  0.10902553  0.45149735  0.17875804    -0.21300
C1987       C  0.04535676  0.33284206  0.03772230    -0.22300
C1988       C  0.04431937  0.37294769  0.04148322    -0.22300
C1989       C  0.21812337  0.32704510  0.20040873    -0.22300
C1990       C  0.21885501  0.36727067  0.19832885    -0.22300
C1991       C  0.07287415  0.27851330  0.07684248    -0.17700
C1992       C  0.17149042  0.27551272  0.17953905    -0.17700
C1993       C  0.17094201  0.41716732  0.17716848    -0.17700
C1994       C  0.06725360  0.41952234  0.09211683    -0.17700
H1995       H  0.08701548  0.20303442  0.10773207     0.15200
H1996       H  0.13720221  0.20162186  0.16354322     0.15200
H1997       H  0.05604110  0.47316792  0.15355359     0.15200
H1998       H  0.11255820  0.47038201  0.20332451     0.15200
H1999       H  0.03260109  0.31610908  0.01470999     0.13500
H2000       H  0.03033472  0.39297003  0.02229350     0.13500
H2001       H  0.24036799  0.30892015  0.21211630     0.13500
H2002       H  0.24119843  0.38588719  0.20921562     0.13500
H2003       H  0.12785914  0.31751006  0.12373776     0.26800
H2004       H  0.13279484  0.38527982  0.11725115     0.26800
C2005       C  0.04172782  0.06062090  0.24317420     0.80800
N2006       N  0.05615474  0.02771050  0.22740880    -0.77500
C2007       C  0.03932152  0.01127554  0.19618044     0.83300
N2008       N  0.00854306  0.02889008  0.17993646    -0.77400
C2009       C  0.99382627  0.06173209  0.19581805     0.83400
N2010       N  0.01084810  0.07767369  0.22710873    -0.79100
C2011       C  0.19210927  0.24316336  0.20050111     0.80800
N2012       N  0.22309120  0.22620884  0.18411275    -0.77500
C2013       C  0.23929044  0.19367813  0.19928566     0.83300
N2014       N  0.22330610  0.17733929  0.23105490    -0.77400
C2015       C  0.19239788  0.19382000  0.24843263     0.83400
N2016       N  0.17650069  0.22621759  0.23224542    -0.79100
N2017       N  0.11540847  0.12710560  0.28719006    -0.36000
N2018       N  0.16461182  0.15367277  0.34730229    -0.56600
N2019       N  0.11614291  0.11203759  0.40371812    -0.36000
N2020       N  0.07023709  0.08209228  0.34405838    -0.56600
C2021       C  0.14314256  0.14395259  0.26583746     0.27600
C2022       C  0.09536960  0.10286400  0.26398608     0.27600
C2023       C  0.14908508  0.11716765  0.42242024     0.27600
C2024       C  0.09841919  0.08271274  0.42151639     0.27600
C2025       C  0.17922922  0.17602381  0.31887076     0.36200
C2026       C  0.17956298  0.16617545  0.38109406     0.36200
C2027       C  0.04907732  0.07683402  0.31208101     0.36200
C2028       C  0.04796237  0.07283516  0.37427615     0.36200
C2029       C  0.13995069  0.13079269  0.22840399    -0.21300
C2030       C  0.11013613  0.10485981  0.22727533    -0.21300
C2031       C  0.15289909  0.09069594  0.45185125    -0.21300
C2032       C  0.12075395  0.06851608  0.45109153    -0.21300
C2033       C  0.20473554  0.20230442  0.33474206    -0.22300
C2034       C  0.20505264  0.19596104  0.37394943    -0.22300
C2035       C  0.01309563  0.06379044  0.32180325    -0.22300
C2036       C  0.01208809  0.06203576  0.36114399    -0.22300
C2037       C  0.17082764  0.17139454  0.27886831    -0.17700
C2038       C  0.06274662  0.08075705  0.27426559    -0.17700
C2039       C  0.06168481  0.07047192  0.41273387    -0.17700
C2040       C  0.17222564  0.14910630  0.41764187    -0.17700
H2041       H  0.15741745  0.13877340  0.20430977     0.15200
H2042       H  0.10020160  0.08965125  0.20200035     0.15200
H2043       H  0.17598687  0.08832630  0.47231185     0.15200
H2044       H  0.11449985  0.04516314  0.47053560     0.15200
H2045       H  0.22193057  0.22322334  0.31961066     0.13500
H2046       H  0.22354132  0.21012231  0.39450070     0.13500
H2047       H  0.98987954  0.05649495  0.30258313     0.13500
H2048       H  0.98768558  0.05339479  0.37774295     0.13500
H2049       H  0.10915664  0.13285391  0.31561035     0.26800
H2050       H  0.10492980  0.13008870  0.38265704     0.26800
C2051       C  0.22873395  0.05329555  0.05228215     0.80800
N2052       N  0.21140390  0.06842693  0.02074365    -0.77500
C2053       C  0.17904279  0.05234091  0.00599478     0.83300
N2054       N  0.16357198  0.02075542  0.02354977    -0.77400
C2055       C  0.18035802  0.00475270  0.05511308     0.83400
N2056       N  0.21251183  0.02192819  0.06994739    -0.79100
N2057       N  0.27522919  0.12323474  0.12302386    -0.36000
N2058       N  0.32699441  0.09728649  0.06231172    -0.56600
N2059       N  0.38587512  0.14144480  0.10065068    -0.36000
N2060       N  0.33609976  0.16982900  0.15819985    -0.56600
C2061       C  0.25098805  0.10528145  0.09804047     0.27600
C2062       C  0.25459711  0.14834045  0.14480675     0.27600
C2063       C  0.39799468  0.13768340  0.06459186     0.27600
C2064       C  0.40466085  0.17159541  0.11583290     0.27600
C2065       C  0.29889224  0.07064406  0.05799052     0.36200
C2066       C  0.35919353  0.08232972  0.04677952     0.36200
C2067       C  0.30815936  0.17640968  0.18391375     0.36200
C2068       C  0.37012994  0.17777692  0.17528874     0.36200
C2069       C  0.21442050  0.11877141  0.10438102    -0.21300
C2070       C  0.21671251  0.14588303  0.13347979    -0.21300
C2071       C  0.42375557  0.16668853  0.05588069    -0.21300
C2072       C  0.42782201  0.18862983  0.08856713    -0.21300
C2073       C  0.31300149  0.03881474  0.03824094    -0.22300
C2074       C  0.35142363  0.04588189  0.03188506    -0.22300
C2075       C  0.32448287  0.18985720  0.21773785    -0.22300
C2076       C  0.36374074  0.19000041  0.21254774    -0.22300
C2077       C  0.26073003  0.07586692  0.07082221    -0.17700
C2078       C  0.26841264  0.17181271  0.17598090    -0.17700
C2079       C  0.40554628  0.17791430  0.15517926    -0.17700
C2080       C  0.39457734  0.10275229  0.04545935    -0.17700
H2081       H  0.18862371  0.11001723  0.08960980     0.15200
H2082       H  0.19289921  0.16158430  0.14525316     0.15200
H2083       H  0.43985886  0.16984986  0.02976972     0.15200
H2084       H  0.44680387  0.21312240  0.09205181     0.15200
H2085       H  0.29746884  0.01291214  0.03008134     0.13500
H2086       H  0.37119055  0.02670017  0.01770740     0.13500
H2087       H  0.30970356  0.19840569  0.24349438     0.13500
H2088       H  0.38478753  0.19974584  0.23318260     0.13500
H2089       H  0.30400922  0.11714532  0.12604708     0.26800
H2090       H  0.37029357  0.12096578  0.11596827     0.26800
N2091       N  0.11151335  0.12486151  0.96331443    -0.36000
N2092       N  0.07132462  0.16629242  0.90364582    -0.56600
N2093       N  0.11696629  0.12485644  0.84477329    -0.36000
N2094       N  0.15273013  0.07998818  0.90439786    -0.56600
C2095       C  0.08345578  0.14179613  0.98398973     0.27600
C2096       C  0.12524859  0.09471595  0.98389220     0.27600
C2097       C  0.08700069  0.13810555  0.82494651     0.27600
C2098       C  0.13120531  0.09477684  0.82483493     0.27600
C2099       C  0.06319272  0.18890974  0.93481398     0.36200
C2100       C  0.06702636  0.18836495  0.87162404     0.36200
C2101       C  0.17322433  0.07319022  0.93679597     0.36200
C2102       C  0.17689731  0.07631898  0.87435353     0.36200
C2103       C  0.07928737  0.12207631  0.01817178    -0.21300
C2104       C  0.10537165  0.09230490  0.01790513    -0.21300
C2105       C  0.08119159  0.11522409  0.79256254    -0.21300
C2106       C  0.10942377  0.08769401  0.79249974    -0.21300
C2107       C  0.05287883  0.22534929  0.92273887    -0.22300
C2108       C  0.05598121  0.22531415  0.88334612    -0.22300
C2109       C  0.21051086  0.06503848  0.92752851    -0.22300
C2110       C  0.21311915  0.06813988  0.88838259    -0.22300
C2111       C  0.06414968  0.17642151  0.97384696    -0.17700
C2112       C  0.15797639  0.07265990  0.97434945    -0.17700
C2113       C  0.16521167  0.07667289  0.83467219    -0.17700
C2114       C  0.07066287  0.17420453  0.83250159    -0.17700
H2115       H  0.05984255  0.12852701  0.04116434     0.15200
H2116       H  0.10938875  0.07159606  0.04043214     0.15200
H2117       H  0.05940141  0.11805499  0.77084133     0.15200
H2118       H  0.11353370  0.06547584  0.77099045     0.15200
H2119       H  0.04465039  0.24969494  0.94046714     0.13500
H2120       H  0.05025440  0.25019128  0.86607578     0.13500
H2121       H  0.23372221  0.05859214  0.94692053     0.13500
H2122       H  0.23912932  0.06527088  0.87240559     0.13500
H2123       H  0.12284696  0.13518303  0.93787665     0.26800
H2124       H  0.12949866  0.13833519  0.86850788     0.26800
N2125       N  0.10819578  0.96560716  0.12671868    -0.36000
N2126       N  0.14286760  0.90465199  0.08316556    -0.56600
N2127       N  0.09667609  0.84911656  0.12613942    -0.36000
N2128       N  0.06020180  0.90796392  0.16835588    -0.56600
C2129       C  0.12982494  0.98755550  0.10285405     0.27600
C2130       C  0.08432831  0.98960536  0.14580763     0.27600
C2131       C  0.10598783  0.82956629  0.09458369     0.27600
C2132       C  0.06674648  0.83062121  0.14110367     0.27600
C2133       C  0.16543578  0.93385495  0.07056258     0.36200
C2134       C  0.15821036  0.87054759  0.07172156     0.36200
C2135       C  0.05436950  0.94047758  0.18925590     0.36200
C2136       C  0.05416672  0.87697207  0.19152361     0.36200
C2137       C  0.12014365  0.02615094  0.10795681    -0.21300
C2138       C  0.09117041  0.02739398  0.13421564    -0.21300
C2139       C  0.08081582  0.79918542  0.08820594    -0.21300
C2140       C  0.05576030  0.79981829  0.11800939    -0.21300
C2141       C  0.19493683  0.91812433  0.04945863    -0.22300
C2142       C  0.19041333  0.87811524  0.05032558    -0.22300
C2143       C  0.04341875  0.93032298  0.22586853    -0.22300
C2144       C  0.04433523  0.89029260  0.22766474    -0.22300
C2145       C  0.15880704  0.97423973  0.07738269    -0.17700
C2146       C  0.05886632  0.97905291  0.17570963    -0.17700
C2147       C  0.05550839  0.83752692  0.17836660    -0.17700
C2148       C  0.14139672  0.83336240  0.07820566    -0.17700
H2149       H  0.13365232  0.05114721  0.09540618     0.15200
H2150       H  0.07789803  0.05350545  0.14476285     0.15200
H2151       H  0.08166723  0.77747866  0.06581337     0.15200
H2152       H  0.03351791  0.77881870  0.12278545     0.15200
H2153       H  0.21713435  0.93378391  0.03472429     0.13500
H2154       H  0.20737504  0.85727928  0.03494024     0.13500
H2155       H  0.03671043  0.94973156  0.24927289     0.13500
H2156       H  0.03793783  0.87351605  0.25279682     0.13500
H2157       H  0.11018779  0.93609631  0.13115243     0.26800
H2158       H  0.11342575  0.87005989  0.13983659     0.26800
N2159       N  0.95442214  0.13423614  0.12611399    -0.36000
N2160       N  0.89704037  0.18150378  0.08955867    -0.56600
N2161       N  0.83643926  0.13957824  0.13261851    -0.36000
N2162       N  0.89430966  0.09679505  0.17195021    -0.56600
C2163       C  0.97779608  0.15733463  0.10547624     0.27600
C2164       C  0.97648857  0.11261823  0.14946821     0.27600
C2165       C  0.81722274  0.16964054  0.11781995     0.27600
C2166       C  0.81555904  0.12565206  0.16183796     0.27600
C2167       C  0.92778544  0.19134665  0.06783733     0.36200
C2168       C  0.86516455  0.19115968  0.06959239     0.36200
C2169       C  0.92520244  0.07695320  0.18477907     0.36200
C2170       C  0.86306843  0.07981288  0.18743522     0.36200
C2171       C  0.01513997  0.14953346  0.11543115    -0.21300
C2172       C  0.01439838  0.12172979  0.14328442    -0.21300
C2173       C  0.78409424  0.17556483  0.13857632    -0.21300
C2174       C  0.78293965  0.14746757  0.16622497    -0.21300
C2175       C  0.91570062  0.20864035  0.03466578    -0.22300
C2176       C  0.87669312  0.20767390  0.03532292    -0.22300
C2177       C  0.91386759  0.04831561  0.20949875    -0.22300
C2178       C  0.87515175  0.05018800  0.21111982    -0.22300
C2179       C  0.96672779  0.18389513  0.07664725    -0.17700
C2180       C  0.96382908  0.08414345  0.17554907    -0.17700
C2181       C  0.82417723  0.09172686  0.18185707    -0.17700
C2182       C  0.82631917  0.18689318  0.08271148    -0.17700
H2183       H  0.04043606  0.16157766  0.10303230     0.15200
H2184       H  0.03915139  0.10940415  0.15705567     0.15200
H2185       H  0.76267025  0.19757608  0.13460528     0.15200
H2186       H  0.76067765  0.14390608  0.18712037     0.15200
H2187       H  0.93315883  0.21947339  0.01164488     0.13500
H2188       H  0.85969374  0.21833587  0.01250600     0.13500
H2189       H  0.93170039  0.02845684  0.22534398     0.13500
H2190       H  0.85885520  0.03255693  0.22949168     0.13500
H2191       H  0.92522072  0.13221229  0.12380116     0.26800
H2192       H  0.86033024  0.12684458  0.12052140     0.26800
loop_ 
_geom_bond_atom_site_label_1 
_geom_bond_atom_site_label_2 
_geom_bond_distance 
_geom_bond_site_symmetry_2 
_ccdc_geom_bond_type 
O1           C17   1.280       .  A
O1           Zn7   1.996       .  S
C2           O18   1.272       .  A
C2           O15   1.278       .  A
C2          C510   1.466       .  S
O3           C16   1.288       .  A
O3          Cd10   2.167       .  S
O4           C22   1.249       .  A
O4          Cd13   1.984       .  S
O5           C19   1.277       .  A
O5           Cd9   2.029       .  S
O6           C17   1.272       .  A
O6           Cd9   2.073       .  S
Zn7          O18   2.011       .  S
Zn7          O20   1.924       .  S
Zn7          O12   1.856       .  S
O8           C19   1.275       .  A
O8          Cd13   2.097       .  S
Cd9          O11   1.969       .  S
Cd9          O12   1.903       .  S
Cd10         O14   2.144       .  S
Cd10         O23   2.180       .  S
Cd10         O12   1.964       .  S
O11          C21   1.250       .  A
O12         Cd13   1.907       .  S
Cd13         O15   2.014       .  S
O14          C21   1.285       .  A
C16          O20   1.253       .  A
C16        C1013   1.510       .  S
C17        C1742   1.477       .  S
C19         C870   1.480       .  S
C21        C1372   1.496       .  S
C22          O23   1.286       .  A
C22        C1561   1.510       .  S
O24          C40   1.269       .  A
O24         Zn30   2.066       .  S
C25          O41   1.281       .  A
C25          O38   1.263       .  A
C25        C1299   1.495       .  S
O26          C39   1.287       .  A
O26         Cd33   2.234       .  S
O27          C45   1.247       .  A
O27         Cd36   2.056       .  S
O28          C42   1.268       .  A
O28         Cd32   2.020       .  S
O29          C40   1.275       .  A
O29         Cd32   2.035       .  S
Zn30         O41   2.047       .  S
Zn30         O43   1.751       .  S
Zn30         O35   1.899       .  S
O31          C42   1.267       .  A
O31         Cd36   2.252       .  S
Cd32         O34   1.962       .  S
Cd32         O35   1.953       .  S
Cd33         O37   2.188       .  S
Cd33         O46   2.155       .  S
Cd33         O35   2.061       .  S
O34          C44   1.250       .  A
O35         Cd36   2.127       .  S
Cd36         O38   2.229       .  S
O37          C44   1.288       .  A
C39          O43   1.222       .  A
C39         C664   1.516       .  S
C40        C2079   1.503       .  S
C42        C1098   1.479       .  S
C44         C904   1.485       .  S
C45          O46   1.290       .  A
C45        C1743   1.485       .  S
C47         C160   1.509       .  S
C47          N48   1.365       .  A
C47          N52   1.370       .  A
N48          C49   1.365       .  A
C49         C227   1.498       .  S
C49          N50   1.362       .  A
N50          C51   1.363       .  A
C51         C193   1.505       .  S
C51          N52   1.370       .  A
C53         C228   1.509       .  S
C53          N54   1.370       .  A
C53          N58   1.367       .  A
N54          C55   1.368       .  A
C55         C261   1.513   1_565  S
C55          N56   1.368       .  A
N56          C57   1.366       .  A
C57         C125   1.509   1_556  S
C57          N58   1.365       .  A
C59         C126   1.503       .  S
C59          N60   1.365   1_554  A
C59          N64   1.367   1_554  A
N60          C61   1.364       .  A
C61          C91   1.513   1_655  S
C61          N62   1.371       .  A
N62          C63   1.371       .  A
C63         C194   1.515       .  S
C63          N64   1.368       .  A
C65         C159   1.503       .  S
C65          N66   1.364       .  A
C65          N70   1.365       .  A
N66          C67   1.365       .  A
C67          C92   1.506   1_655  S
C67          N68   1.369       .  A
N68          C69   1.369       .  A
C69         C262   1.509   1_565  S
C69          N70   1.366       .  A
N71          C76   1.356       .  A
N71          C75   1.361       .  A
N71         H103   1.037       .  S
N72          C79   1.362       .  A
N72          C80   1.360       .  A
N73          C78   1.336       .  A
N73          C77   1.339       .  A
N73         H104   1.043       .  S
N74          C81   1.360       .  A
N74          C82   1.361       .  A
C75          C83   1.386   1_455  A
C75          C91   1.425       .  A
C76          C92   1.429       .  A
C76          C84   1.391   1_455  A
C77          C85   1.384       .  A
C77          C94   1.381       .  A
C78          C93   1.385       .  A
C78          C86   1.389       .  A
C79          C91   1.422       .  A
C79          C87   1.380       .  A
C80          C94   1.444       .  A
C80          C88   1.384       .  A
C81          C89   1.388       .  A
C81          C92   1.434       .  A
C82          C90   1.387       .  A
C82          C93   1.434       .  A
C83          C84   1.380       .  A
C83          H95   1.082       .  S
C84          H96   1.081       .  S
C85          C86   1.370       .  A
C85          H97   1.081       .  S
C86          H98   1.081       .  S
C87          C88   1.377       .  A
C87          H99   1.082   1_556  S
C88         H100   1.070   1_556  S
C89          C90   1.388       .  A
C89         H101   1.082       .  S
C90         H102   1.082       .  S
C93         C408   1.479       .  S
C94         C359   1.494       .  S
N105        C110   1.359       .  A
N105        C109   1.364       .  A
N105        H137   1.035       .  S
N106        C113   1.354       .  A
N106        C114   1.354       .  A
N107        C112   1.337       .  A
N107        C111   1.335       .  A
N107        H138   1.042       .  S
N108        C115   1.355       .  A
N108        C116   1.362       .  A
C109        C117   1.384   1_554  A
C109        C125   1.431       .  A
C110        C126   1.432       .  A
C110        C118   1.389   1_554  A
C111        C119   1.384       .  A
C111        C128   1.378       .  A
C112        C127   1.386       .  A
C112        C120   1.388       .  A
C113        C125   1.421       .  A
C113        C121   1.385       .  A
C114        C128   1.425       .  A
C114        C122   1.386       .  A
C115        C123   1.389       .  A
C115        C126   1.432       .  A
C116        C124   1.384       .  A
C116        C127   1.432       .  A
C117        C118   1.377       .  A
C117        H129   1.075       .  S
C118        H130   1.082       .  S
C119        C120   1.369       .  A
C119        H131   1.080       .  S
C120        H132   1.080       .  S
C121        C122   1.384       .  A
C121        H133   1.082       .  S
C122        H134   1.078       .  S
C123        C124   1.391       .  A
C123        H135   1.082       .  S
C124        H136   1.082       .  S
C127        C454   1.488       .  S
C128        C711   1.474       .  S
N139        C144   1.361       .  A
N139        C143   1.362       .  A
N139        H171   1.035       .  S
N140        C147   1.355       .  A
N140        C148   1.356       .  A
N141        C146   1.338       .  A
N141        C145   1.337       .  A
N141        H172   1.042       .  S
N142        C149   1.358       .  A
N142        C150   1.361       .  A
C143        C151   1.387       .  A
C143        C159   1.432       .  A
C144        C160   1.432       .  A
C144        C152   1.387       .  A
C145        C153   1.384       .  A
C145        C162   1.379       .  A
C146        C161   1.384       .  A
C146        C154   1.386       .  A
C147        C159   1.424       .  A
C147        C155   1.386       .  A
C148        C162   1.426       .  A
C148        C156   1.384       .  A
C149        C157   1.383       .  A
C149        C160   1.427       .  A
C150        C158   1.390       .  A
C150        C161   1.441       .  A
C151        C152   1.379       .  A
C151        H163   1.080       .  S
C152        H164   1.078       .  S
C153        C154   1.363       .  A
C153        H165   1.080       .  S
C154        H166   1.077       .  S
C155        C156   1.383       .  A
C155        H167   1.082       .  S
C156        H168   1.076       .  S
C157        C158   1.381       .  A
C157        H169   1.082       .  S
C158        H170   1.077       .  S
C161        C434   1.496       .  S
C162       C1236   1.478       .  S
N173        C178   1.356       .  A
N173        C177   1.353       .  A
N173        H205   1.041       .  S
N174        C181   1.363       .  A
N174        C182   1.362       .  A
N175        C180   1.346       .  A
N175        C179   1.347       .  A
N175        H206   1.042       .  S
N176        C183   1.367       .  A
N176        C184   1.364       .  A
C177        C185   1.387       .  A
C177        C193   1.418       .  A
C178        C194   1.416       .  A
C178        C186   1.386       .  A
C179        C187   1.386       .  A
C179        C196   1.402       .  A
C180        C195   1.402       .  A
C180        C188   1.387       .  A
C181        C193   1.422       .  A
C181        C189   1.377       .  A
C182        C196   1.447       .  A
C182        C190   1.393       .  A
C183        C191   1.372       .  A
C183        C194   1.424       .  A
C184        C192   1.390       .  A
C184        C195   1.453       .  A
C185        C186   1.379       .  A
C185        H197   1.076       .  S
C186        H198   1.082       .  S
C187        C188   1.376       .  A
C187        H199   1.080       .  S
C188        H200   1.080       .  S
C189        C190   1.377       .  A
C189        H201   1.082       .  S
C190        H202   1.070       .  S
C191        C192   1.375       .  A
C191        H203   1.080       .  S
C192        H204   1.066       .  S
C195        C388   1.516       .  S
C196       C1233   1.507       .  S
N207        C212   1.360       .  A
N207        C211   1.356       .  A
N207        H239   1.030       .  S
N208        C215   1.358       .  A
N208        C216   1.358       .  A
N209        C214   1.344       .  A
N209        C213   1.345       .  A
N209        H240   1.039       .  S
N210        C217   1.362       .  A
N210        C218   1.359       .  A
C211        C219   1.388       .  A
C211        C227   1.428       .  A
C212        C228   1.425       .  A
C212        C220   1.386       .  A
C213        C221   1.384       .  A
C213        C230   1.389       .  A
C214        C229   1.395       .  A
C214        C222   1.389       .  A
C215        C227   1.429       .  A
C215        C223   1.386       .  A
C216        C230   1.427       .  A
C216        C224   1.384       .  A
C217        C225   1.380       .  A
C217        C228   1.427       .  A
C218        C226   1.392       .  A
C218        C229   1.444       .  A
C219        C220   1.373       .  A
C219        H231   1.077       .  S
C220        H232   1.082       .  S
C221        C222   1.363       .  A
C221        H233   1.083       .  S
C222        H234   1.082       .  S
C223        C224   1.383       .  A
C223        H235   1.082       .  S
C224        H236   1.080       .  S
C225        C226   1.375       .  A
C225        H237   1.083       .  S
C226        H238   1.074       .  S
C229        C474   1.484       .  S
C230        C337   1.477       .  S
N241        C246   1.365       .  A
N241        C245   1.361       .  A
N241        H273   1.034       .  S
N242        C249   1.357       .  A
N242        C250   1.364       .  A
N243        C248   1.341       .  A
N243        C247   1.344       .  A
N243        H274   1.043       .  S
N244        C251   1.354       .  A
N244        C252   1.353       .  A
C245        C253   1.389   1_545  A
C245        C261   1.438       .  A
C246        C262   1.431       .  A
C246        C254   1.384   1_545  A
C247        C255   1.393       .  A
C247        C264   1.403       .  A
C248        C263   1.379       .  A
C248        C256   1.379       .  A
C249        C261   1.438       .  A
C249        C257   1.389       .  A
C250        C264   1.437       .  A
C250        C258   1.382       .  A
C251        C259   1.388       .  A
C251        C262   1.424       .  A
C252        C260   1.385       .  A
C252        C263   1.419       .  A
C253        C254   1.376       .  A
C253        H265   1.076       .  S
C254        H266   1.082       .  S
C255        C256   1.365       .  A
C255        H267   1.076       .  S
C256        H268   1.083       .  S
C257        C258   1.392       .  A
C257        H269   1.082       .  S
C258        H270   1.079       .  S
C259        C260   1.386       .  A
C259        H271   1.082       .  S
C260        H272   1.082       .  S
C263       C1943   1.470       .  S
C264        C749   1.512       .  S
O275        C291   1.278       .  A
O275       Zn281   1.978       .  S
C276        O292   1.268       .  A
C276        O289   1.282       .  A
C276       C1515   1.466       .  S
O277        C290   1.290       .  A
O277       Cd284   2.174       .  S
O278        C296   1.259       .  A
O278       Cd287   1.981       .  S
O279        C293   1.272       .  A
O279       Cd283   2.094       .  S
O280        C291   1.267       .  A
O280       Cd283   2.059       .  S
Zn281       O292   1.995       .  S
Zn281       O294   1.870       .  S
Zn281       O286   1.804       .  S
O282        C293   1.281       .  A
O282       Cd287   2.033       .  S
Cd283       O285   1.945       .  S
Cd283       O286   1.874       .  S
Cd284       O288   2.202       .  S
Cd284       O297   2.149       .  S
Cd284       O286   1.974       .  S
O285        C295   1.240       .  A
O286       Cd287   1.892       .  S
Cd287       O289   2.065       .  S
O288        C295   1.287       .  A
C290        O294   1.242       .  A
C290        C511   1.481       .  S
C291       C1065   1.497       .  S
C293       C1993   1.499       .  S
C295        C905   1.503       .  S
C296        O297   1.287       .  A
C296       C1795   1.497       .  S
O298        C314   1.274       .  A
O298       Zn304   2.002       .  S
C299        O315   1.274       .  A
C299        O312   1.273       .  A
C299       C2040   1.474       .  S
O300        C313   1.295       .  A
O300       Cd307   2.193       .  S
O301        C319   1.247       .  A
O301       Cd310   1.966       .  S
O302        C316   1.281       .  A
O302       Cd306   2.036       .  S
O303        C314   1.272       .  A
O303       Cd306   2.067       .  S
Zn304       O315   1.988       .  S
Zn304       O317   1.838       .  S
Zn304       O309   1.838       .  S
O305        C316   1.264       .  A
O305       Cd310   2.071       .  S
Cd306       O308   1.956       .  S
Cd306       O309   1.923       .  S
Cd307       O311   2.178       .  S
Cd307       O320   2.214       .  S
Cd307       O309   1.964       .  S
O308        C318   1.246       .  A
O309       Cd310   1.886       .  S
Cd310       O312   2.005       .  S
O311        C318   1.291       .  A
C313        O317   1.249       .  A
C313        C665   1.496       .  S
C314       C1332   1.476       .  S
C316       C1601   1.474       .  S
C318        C871   1.490       .  S
C319        O320   1.293       .  A
C319       C1794   1.508       .  S
O321        C337   1.271       .  A
O321       Zn327   2.042       .  S
C322        O338   1.279       .  A
C322        O335   1.280       .  A
C322        C802   1.484       .  S
O323        C336   1.282       .  A
O323       Cd330   2.131       .  S
O324        C342   1.247       .  A
O324       Cd333   1.986       .  S
O325        C339   1.270       .  A
O325       Cd329   2.058       .  S
O326        C337   1.276       .  A
O326       Cd329   2.026       .  S
Zn327       O338   1.999       .  S
Zn327       O340   1.927       .  S
Zn327       O332   1.844       .  S
O328        C339   1.279       .  A
O328       Cd333   2.043       .  S
Cd329       O331   1.971       .  S
Cd329       O332   1.920       .  S
Cd330       O334   2.168       .  S
Cd330       O343   2.189       .  S
Cd330       O332   1.974       .  S
O331        C341   1.252       .  A
O332       Cd333   1.902       .  S
Cd333       O335   2.102       .  S
O334        C341   1.290       .  A
C336        O340   1.255       .  A
C336       C1132   1.500       .  S
C339        C631   1.471       .  S
C341       C1406   1.501       .  S
C342        O343   1.286       .  A
C342       C1560   1.510       .  S
O344        C360   1.278       .  A
O344       Zn350   1.975   1_556  S
C345        O361   1.271       .  A
C345        O358   1.266       .  A
C345       C2148   1.478       .  S
O346        C359   1.300       .  A
O346       Cd353   2.214       .  S
O347        C365   1.244       .  A
O347       Cd356   1.968       .  S
O348        C362   1.278       .  A
O348       Cd352   2.324       .  S
O349        C360   1.268       .  A
O349       Cd352   2.368   1_556  S
Zn350       O361   1.971       .  S
Zn350       O363   1.799   1_554  S
Zn350       O355   1.845       .  S
O351        C362   1.274       .  A
O351       Cd356   2.035       .  S
Cd352       O354   2.112   1_554  S
Cd352       O355   2.037       .  S
Cd353       O357   2.216       .  S
Cd353       O366   2.206   1_556  S
Cd353       O355   1.978   1_556  S
O354        C364   1.258       .  A
O355       Cd356   1.902       .  S
Cd356       O358   2.013       .  S
O357        C364   1.298       .  A
C359        O363   1.241       .  A
C360       C1702   1.511       .  S
C362       C1064   1.478       .  S
C364        C803   1.506       .  S
C365        O366   1.290       .  A
C365        C584   1.507       .  S
O367        C383   1.275       .  A
O367       Zn373   2.034   1_455  S
C368        O384   1.281       .  A
C368        O381   1.277       .  A
C368       C1167   1.498       .  S
O369        C382   1.284       .  A
O369       Cd376   2.147   1_554  S
O370        C388   1.245       .  A
O370       Cd379   1.984       .  S
O371        C385   1.273       .  A
O371       Cd375   2.097   1_556  S
O372        C383   1.280       .  A
O372       Cd375   2.079       .  S
Zn373       O384   1.975       .  S
Zn373       O386   1.932       .  S
Zn373       O378   1.847   1_655  S
O374        C385   1.274       .  A
O374       Cd379   2.027   1_455  S
Cd375       O377   1.912   1_554  S
Cd375       O378   1.917       .  S
Cd376       O380   2.177   1_655  S
Cd376       O389   2.200       .  S
Cd376       O378   1.978   1_656  S
O377        C387   1.248       .  A
O378       Cd379   1.918   1_454  S
Cd379       O381   2.091   1_556  S
O380        C387   1.295       .  A
C382        O386   1.255       .  A
C382       C1863   1.502       .  S
C383       C1994   1.487       .  S
C385       C1703   1.495       .  S
C387        C973   1.489       .  S
C388        O389   1.288       .  A
O390        C406   1.279       .  A
O390       Zn396   2.045   1_545  S
C391        O407   1.282       .  A
C391        O404   1.269       .  A
C391        C630   1.495       .  S
O392        C405   1.288       .  A
O392       Cd399   2.188       .  S
O393        C411   1.246       .  A
O393       Cd402   1.958       .  S
O394        C408   1.266       .  A
O394       Cd398   2.044       .  S
O395        C406   1.277       .  A
O395       Cd398   2.028   1_545  S
Zn396       O407   1.990       .  S
Zn396       O409   1.916   1_565  S
Zn396       O401   1.853       .  S
O397        C408   1.272       .  A
O397       Cd402   2.039       .  S
Cd398       O400   1.899   1_565  S
Cd398       O401   1.889       .  S
Cd399       O403   2.225       .  S
Cd399       O412   2.239   1_545  S
Cd399       O401   1.983   1_545  S
O400        C410   1.245       .  A
O401       Cd402   1.889       .  S
Cd402       O404   2.078       .  S
O403        C410   1.298       .  A
C405        O409   1.248       .  A
C405       C1333   1.508       .  S
C406        C938   1.485       .  S
C410       C2113   1.507       .  S
C411        O412   1.296       .  A
C411       C1669   1.518       .  S
O413        C429   1.273       .  A
O413       Zn419   2.034       .  S
C414        O430   1.274       .  A
C414        O427   1.279       .  A
C414       C1407   1.498       .  S
O415        C428   1.284       .  A
O415       Cd422   2.148       .  S
O416        C434   1.245       .  A
O416       Cd425   1.962       .  S
O417        C431   1.274       .  A
O417       Cd421   2.084       .  S
O418        C429   1.280       .  A
O418       Cd421   2.048       .  S
Zn419       O430   1.943       .  S
Zn419       O432   1.934       .  S
Zn419       O424   1.835       .  S
O420        C431   1.282       .  A
O420       Cd425   2.063       .  S
Cd421       O423   1.972       .  S
Cd421       O424   1.903       .  S
Cd422       O426   2.153       .  S
Cd422       O435   2.154       .  S
Cd422       O424   1.963       .  S
O423        C433   1.252       .  A
O424       Cd425   1.931       .  S
Cd425       O427   2.122       .  S
O426        C433   1.287       .  A
C428        O432   1.253       .  A
C428        C551   1.507       .  S
C429       C1012   1.476       .  S
C431       C1634   1.485       .  S
C433       C1897   1.500       .  S
C434        O435   1.286       .  A
O436        C452   1.269       .  A
O436       Zn442   1.995       .  S
C437        O453   1.269       .  A
C437        O450   1.269       .  A
C437       C1896   1.481       .  S
O438        C451   1.292       .  A
O438       Cd445   2.205       .  S
O439        C457   1.245       .  A
O439       Cd448   1.902       .  S
O440        C454   1.277       .  A
O440       Cd444   2.081   1_655  S
O441        C452   1.280       .  A
O441       Cd444   2.036       .  S
Zn442       O453   1.932   1_455  S
Zn442       O455   1.929       .  S
Zn442       O447   1.835   1_455  S
O443        C454   1.274       .  A
O443       Cd448   2.073       .  S
Cd444       O446   1.976       .  S
Cd444       O447   1.925   1_455  S
Cd445       O449   2.152       .  S
Cd445       O458   2.169   1_455  S
Cd445       O447   1.965   1_455  S
O446        C456   1.253       .  A
O447       Cd448   1.913       .  S
Cd448       O450   2.068       .  S
O449        C456   1.284       .  A
C451        O455   1.250       .  A
C451       C1514   1.523       .  S
C452        C698   1.460       .  S
C456       C2147   1.499       .  S
C457        O458   1.293       .  A
C457       C1166   1.490       .  S
O459        C475   1.268       .  A
O459       Zn465   2.025   1_556  S
C460        O476   1.276       .  A
C460        O473   1.280       .  A
C460       C1200   1.500       .  S
O461        C474   1.292       .  A
O461       Cd468   2.177       .  S
O462        C480   1.254       .  A
O462       Cd471   1.946   1_565  S
O463        C477   1.281       .  A
O463       Cd467   2.119   1_554  S
O464        C475   1.277       .  A
O464       Cd467   2.065       .  S
Zn465       O476   1.951   1_545  S
Zn465       O478   1.868   1_544  S
Zn465       O470   1.853       .  S
O466        C477   1.275       .  A
O466       Cd471   2.061       .  S
Cd467       O469   1.971       .  S
Cd467       O470   1.946   1_556  S
Cd468       O472   2.178   1_565  S
Cd468       O481   2.181   1_556  S
Cd468       O470   1.971   1_566  S
O469        C479   1.246       .  A
O470       Cd471   1.914       .  S
Cd471       O473   2.056   1_545  S
O472        C479   1.287       .  A
C474        O478   1.244       .  A
C475       C1474   1.481       .  S
C477       C2080   1.489       .  S
C479        C939   1.513       .  S
C480        O481   1.292       .  A
C480        C585   1.498       .  S
C482        C583   1.502       .  S
C482        N483   1.366       .  A
C482        N487   1.365       .  A
N483        C484   1.366       .  A
C484        C697   1.500       .  S
C484        N485   1.365       .  A
N485        C486   1.363       .  A
C486        C508   1.503       .  S
C486        N487   1.363       .  A
N488        C493   1.359       .  A
N488        C492   1.359       .  A
N488        H520   1.030       .  S
N489        C496   1.359       .  A
N489        C497   1.359       .  A
N490        C495   1.339       .  A
N490        C494   1.341       .  A
N490        H521   1.039       .  S
N491        C498   1.358       .  A
N491        C499   1.357       .  A
C492        C500   1.387       .  A
C492        C508   1.428       .  A
C493        C509   1.432       .  A
C493        C501   1.387       .  A
C494        C502   1.388       .  A
C494        C511   1.385       .  A
C495        C510   1.381       .  A
C495        C503   1.387       .  A
C496        C508   1.426       .  A
C496        C504   1.381       .  A
C497        C511   1.439       .  A
C497        C505   1.387       .  A
C498        C506   1.387       .  A
C498        C509   1.430       .  A
C499        C507   1.385       .  A
C499        C510   1.427       .  A
C500        C501   1.375       .  A
C500        H512   1.081       .  S
C501        H513   1.077       .  S
C502        C503   1.359       .  A
C502        H514   1.083       .  S
C503        H515   1.083       .  S
C504        C505   1.374       .  A
C504        H516   1.083       .  S
C505        H517   1.068       .  S
C506        C507   1.384       .  A
C506        H518   1.082       .  S
C507        H519   1.080       .  S
C509        C604   1.506       .  S
C522        C549   1.514       .  S
C522        N523   1.372       .  A
C522        N527   1.369       .  A
N523        C524   1.371       .  A
C524        C663   1.521   1_565  S
C524        N525   1.368       .  A
N525        C526   1.369       .  A
C526        C582   1.516       .  S
C526        N527   1.367       .  A
N528        C533   1.360       .  A
N528        C532   1.358       .  A
N528        H560   1.036       .  S
N529        C536   1.359       .  A
N529        C537   1.362       .  A
N530        C535   1.343       .  A
N530        C534   1.347       .  A
N530        H561   1.041       .  S
N531        C538   1.362       .  A
N531        C539   1.358       .  A
C532        C540   1.387       .  A
C532        C548   1.427       .  A
C533        C549   1.425       .  A
C533        C541   1.386       .  A
C534        C542   1.388       .  A
C534        C551   1.400       .  A
C535        C550   1.394       .  A
C535        C543   1.385       .  A
C536        C548   1.424       .  A
C536        C544   1.380       .  A
C537        C551   1.443       .  A
C537        C545   1.391       .  A
C538        C546   1.385       .  A
C538        C549   1.431       .  A
C539        C547   1.387       .  A
C539        C550   1.431       .  A
C540        C541   1.375       .  A
C540        H552   1.077       .  S
C541        H553   1.082       .  S
C542        C543   1.370       .  A
C542        H554   1.079       .  S
C543        H555   1.083       .  S
C544        C545   1.377       .  A
C544        H556   1.082       .  S
C545        H557   1.071       .  S
C546        C547   1.386       .  A
C546        H558   1.082       .  S
C547        H559   1.082       .  S
C548        C606   1.506       .  S
C550        C728   1.481       .  S
N562        C567   1.350       .  A
N562        C566   1.358       .  A
N562        H594   1.034       .  S
N563        C570   1.370       .  A
N563        C571   1.358       .  A
N564        C569   1.349       .  A
N564        C568   1.348       .  A
N564        H595   1.038       .  S
N565        C572   1.368       .  A
N565        C573   1.366       .  A
C566        C574   1.388       .  A
C566        C582   1.420       .  A
C567        C583   1.418       .  A
C567        C575   1.389       .  A
C568        C576   1.387       .  A
C568        C585   1.401       .  A
C569        C584   1.404       .  A
C569        C577   1.388       .  A
C570        C582   1.426       .  A
C570        C578   1.377       .  A
C571        C585   1.442       .  A
C571        C579   1.374       .  A
C572        C580   1.375       .  A
C572        C583   1.431       .  A
C573        C581   1.390       .  A
C573        C584   1.455       .  A
C574        C575   1.377       .  A
C574        H586   1.082       .  S
C575        H587   1.082       .  S
C576        C577   1.366       .  A
C576        H588   1.080       .  S
C577        H589   1.082       .  S
C578        C579   1.371       .  A
C578        H590   1.082       .  S
C579        H591   1.055       .  S
C580        C581   1.370       .  A
C580        H592   1.083       .  S
C581        H593   1.066       .  S
C596        C696   1.503       .  S
C596        N597   1.371       .  A
C596        N601   1.364       .  A
N597        C598   1.370       .  A
C598        C662   1.520   1_565  S
C598        N599   1.369       .  A
N599        C600   1.368       .  A
C600        C629   1.506       .  S
C600        N601   1.361       .  A
C602        C628   1.509       .  S
C602        N603   1.369       .  A
C602        N607   1.367       .  A
N603        C604   1.369       .  A
C604        N605   1.364       .  A
N605        C606   1.364       .  A
C606        N607   1.366       .  A
N608        C613   1.362       .  A
N608        C612   1.365       .  A
N608        H640   1.033       .  S
N609        C616   1.354       .  A
N609        C617   1.355       .  A
N610        C615   1.341       .  A
N610        C614   1.338       .  A
N610        H641   1.044       .  S
N611        C618   1.353       .  A
N611        C619   1.359       .  A
C612        C620   1.386       .  A
C612        C628   1.435       .  A
C613        C629   1.437       .  A
C613        C621   1.387       .  A
C614        C622   1.383       .  A
C614        C631   1.378       .  A
C615        C630   1.391       .  A
C615        C623   1.388       .  A
C616        C628   1.428       .  A
C616        C624   1.389       .  A
C617        C631   1.423       .  A
C617        C625   1.385       .  A
C618        C626   1.389       .  A
C618        C629   1.429       .  A
C619        C627   1.386       .  A
C619        C630   1.429       .  A
C620        C621   1.377       .  A
C620        H632   1.081       .  S
C621        H633   1.076       .  S
C622        C623   1.366       .  A
C622        H634   1.083       .  S
C623        H635   1.079       .  S
C624        C625   1.389       .  A
C624        H636   1.082       .  S
C625        H637   1.081       .  S
C626        C627   1.386       .  A
C626        H638   1.082       .  S
C627        H639   1.081       .  S
N642        C647   1.357       .  A
N642        C646   1.358       .  A
N642        H674   1.040       .  S
N643        C650   1.364       .  A
N643        C651   1.359       .  A
N644        C649   1.343       .  A
N644        C648   1.344       .  A
N644        H675   1.043       .  S
N645        C652   1.372       .  A
N645        C653   1.368       .  A
C646        C654   1.387   1_545  A
C646        C662   1.428       .  A
C647        C663   1.418       .  A
C647        C655   1.384   1_545  A
C648        C656   1.386       .  A
C648        C665   1.394       .  A
C649        C664   1.394       .  A
C649        C657   1.387       .  A
C650        C662   1.427       .  A
C650        C658   1.383       .  A
C651        C665   1.441       .  A
C651        C659   1.387       .  A
C652        C660   1.372       .  A
C652        C663   1.429       .  A
C653        C661   1.396       .  A
C653        C664   1.465       .  A
C654        C655   1.381       .  A
C654        H666   1.072       .  S
C655        H667   1.082       .  S
C656        C657   1.374       .  A
C656        H668   1.081       .  S
C657        H669   1.081       .  S
C658        C659   1.379       .  A
C658        H670   1.082       .  S
C659        H671   1.076       .  S
C660        C661   1.370       .  A
C660        H672   1.082       .  S
C661        H673   1.065       .  S
N676        C681   1.363       .  A
N676        C680   1.358       .  A
N676        H708   1.035       .  S
N677        C684   1.357       .  A
N677        C685   1.362       .  A
N678        C683   1.339       .  A
N678        C682   1.343       .  A
N678        H709   1.039       .  S
N679        C686   1.353       .  A
N679        C687   1.352       .  A
C680        C688   1.390       .  A
C680        C696   1.432       .  A
C681        C697   1.426       .  A
C681        C689   1.384       .  A
C682        C690   1.389       .  A
C682        C699   1.392       .  A
C683        C698   1.385       .  A
C683        C691   1.386       .  A
C684        C696   1.435       .  A
C684        C692   1.389       .  A
C685        C699   1.433       .  A
C685        C693   1.384       .  A
C686        C694   1.387       .  A
C686        C697   1.419       .  A
C687        C695   1.386       .  A
C687        C698   1.416       .  A
C688        C689   1.373       .  A
C688        H700   1.079       .  S
C689        H701   1.081       .  S
C690        C691   1.366       .  A
C690        H702   1.082       .  S
C691        H703   1.083       .  S
C692        C693   1.391       .  A
C692        H704   1.082       .  S
C693        H705   1.081       .  S
C694        C695   1.383       .  A
C694        H706   1.082       .  S
C695        H707   1.082       .  S
C699       C1253   1.489       .  S
O710        C726   1.270       .  A
O710       Zn716   2.016       .  S
C711        O727   1.273       .  A
C711        O724   1.264       .  A
O712        C725   1.287       .  A
O712       Cd719   2.199       .  S
O713        C731   1.244       .  A
O713       Cd722   1.957       .  S
O714        C728   1.284       .  A
O714       Cd718   2.076       .  S
O715        C726   1.284       .  A
O715       Cd718   2.081   1_545  S
Zn716       O727   1.967   1_545  S
Zn716       O729   1.917       .  S
Zn716       O721   1.797   1_545  S
O717        C728   1.270       .  A
O717       Cd722   2.060       .  S
Cd718       O720   1.969   1_565  S
Cd718       O721   1.907       .  S
Cd719       O723   2.110       .  S
Cd719       O732   2.162   1_545  S
Cd719       O721   1.989   1_545  S
O720        C730   1.258       .  A
O721       Cd722   1.903       .  S
Cd722       O724   2.019       .  S
O723        C730   1.284       .  A
C725        O729   1.249       .  A
C725       C2181   1.509       .  S
C726       C1930   1.501       .  S
C730       C1298   1.473       .  S
C731        O732   1.285       .  A
C731       C1201   1.503       .  S
O733        C749   1.274       .  A
O733       Zn739   1.968   1_556  S
C734        O750   1.272       .  A
C734        O747   1.279       .  A
C734       C1862   1.477       .  S
O735        C748   1.282       .  A
O735       Cd742   2.135       .  S
O736        C754   1.252       .  A
O736       Cd745   1.978       .  S
O737        C751   1.284       .  A
O737       Cd741   2.049       .  S
O738        C749   1.278       .  A
O738       Cd741   2.140       .  S
Zn739       O750   2.042       .  S
Zn739       O752   1.930       .  S
Zn739       O744   1.808   1_554  S
O740        C751   1.272       .  A
O740       Cd745   2.069   1_556  S
Cd741       O743   1.966       .  S
Cd741       O744   1.916       .  S
Cd742       O746   2.153   1_554  S
Cd742       O755   2.148       .  S
Cd742       O744   1.960   1_554  S
O743        C753   1.246       .  A
O744       Cd745   1.906   1_556  S
Cd745       O747   2.048       .  S
O746        C753   1.285       .  A
C748        O752   1.253       .  A
C748       C2182   1.498       .  S
C751        C836   1.479       .  S
C753       C1475   1.497       .  S
C754        O755   1.286       .  A
C754       C1099   1.497       .  S
C756        C937   1.515       .  S
C756        N757   1.369       .  A
C756        N761   1.368       .  A
N757        C758   1.370       .  A
C758        C971   1.509       .  S
C758        N759   1.366       .  A
N759        C760   1.366       .  A
C760        C868   1.510       .  S
C760        N761   1.369       .  A
C762        C835   1.511       .  S
C762        N763   1.372       .  A
C762        N767   1.371       .  A
N763        C764   1.368       .  A
C764        C936   1.519       .  S
C764        N765   1.365       .  A
N765        C766   1.369   1_556  A
C766        C903   1.515       .  S
C766        N767   1.369   1_554  A
C768        C869   1.503       .  S
C768        N769   1.368       .  A
C768        N773   1.365       .  A
N769        C770   1.366       .  A
C770        C834   1.505       .  S
C770        N771   1.364       .  A
N771        C772   1.364       .  A
C772        C801   1.501       .  S
C772        N773   1.364       .  A
C774        C970   1.499       .  S
C774        N775   1.359       .  A
C774        N779   1.367       .  A
N775        C776   1.361   1_556  A
C776        C902   1.495       .  S
C776        N777   1.369   1_554  A
N777        C778   1.366       .  A
C778        C800   1.512       .  S
C778        N779   1.367       .  A
N780        C785   1.356       .  A
N780        C784   1.360       .  A
N780        H812   1.033       .  S
N781        C788   1.361       .  A
N781        C789   1.358       .  A
N782        C787   1.348       .  A
N782        C786   1.352       .  A
N782        H813   1.040       .  S
N783        C790   1.359       .  A
N783        C791   1.358       .  A
C784        C792   1.384       .  A
C784        C800   1.425       .  A
C785        C801   1.427       .  A
C785        C793   1.388       .  A
C786        C794   1.389       .  A
C786        C803   1.409       .  A
C787        C802   1.399       .  A
C787        C795   1.383       .  A
C788        C800   1.423       .  A
C788        C796   1.381       .  A
C789        C803   1.443       .  A
C789        C797   1.393       .  A
C790        C798   1.387       .  A
C790        C801   1.430       .  A
C791        C799   1.387       .  A
C791        C802   1.429       .  A
C792        C793   1.375       .  A
C792        H804   1.076       .  S
C793        H805   1.080       .  S
C794        C795   1.369       .  A
C794        H806   1.078       .  S
C795        H807   1.083       .  S
C796        C797   1.379       .  A
C796        H808   1.082   1_556  S
C797        H809   1.082   1_556  S
C798        C799   1.383       .  A
C798        H810   1.082       .  S
C799        H811   1.082       .  S
N814        C819   1.358       .  A
N814        C818   1.361       .  A
N814        H846   1.037       .  S
N815        C822   1.356       .  A
N815        C823   1.355       .  A
N816        C821   1.340       .  A
N816        C820   1.342       .  A
N816        H847   1.042       .  S
N817        C824   1.361       .  A
N817        C825   1.361       .  A
C818        C826   1.387       .  A
C818        C834   1.429       .  A
C819        C835   1.427       .  A
C819        C827   1.388       .  A
C820        C828   1.389       .  A
C820        C837   1.389       .  A
C821        C836   1.382       .  A
C821        C829   1.386       .  A
C822        C834   1.419       .  A
C822        C830   1.384       .  A
C823        C837   1.427       .  A
C823        C831   1.385       .  A
C824        C832   1.387       .  A
C824        C835   1.435       .  A
C825        C833   1.385       .  A
C825        C836   1.433       .  A
C826        C827   1.380       .  A
C826        H838   1.080       .  S
C827        H839   1.083       .  S
C828        C829   1.363       .  A
C828        H840   1.082       .  S
C829        H841   1.083       .  S
C830        C831   1.377       .  A
C830        H842   1.082       .  S
C831        H843   1.075       .  S
C832        C833   1.388       .  A
C832        H844   1.082       .  S
C833        H845   1.080       .  S
C837       C1232   1.474       .  S
N848        C853   1.359       .  A
N848        C852   1.360       .  A
N848        H880   1.031       .  S
N849        C856   1.363       .  A
N849        C857   1.361       .  A
N850        C855   1.348       .  A
N850        C854   1.348       .  A
N850        H881   1.038       .  S
N851        C858   1.358       .  A
N851        C859   1.358       .  A
C852        C860   1.387       .  A
C852        C868   1.428       .  A
C853        C869   1.431       .  A
C853        C861   1.389       .  A
C854        C862   1.390       .  A
C854        C871   1.400       .  A
C855        C870   1.396       .  A
C855        C863   1.385       .  A
C856        C868   1.430       .  A
C856        C864   1.380       .  A
C857        C871   1.445       .  A
C857        C865   1.392       .  A
C858        C866   1.388       .  A
C858        C869   1.432       .  A
C859        C867   1.386       .  A
C859        C870   1.429       .  A
C860        C861   1.373       .  A
C860        H872   1.080       .  S
C861        H873   1.081       .  S
C862        C863   1.357       .  A
C862        H874   1.082       .  S
C863        H875   1.083       .  S
C864        C865   1.376       .  A
C864        H876   1.083       .  S
C865        H877   1.075       .  S
C866        C867   1.384       .  A
C866        H878   1.082       .  S
C867        H879   1.082       .  S
N882        C887   1.355       .  A
N882        C886   1.351       .  A
N882        H914   1.040       .  S
N883        C890   1.365       .  A
N883        C891   1.364       .  A
N884        C889   1.341       .  A
N884        C888   1.344       .  A
N884        H915   1.042       .  S
N885        C892   1.365       .  A
N885        C893   1.357       .  A
C886        C894   1.384   1_554  A
C886        C902   1.407       .  A
C887        C903   1.418       .  A
C887        C895   1.386   1_554  A
C888        C896   1.386       .  A
C888        C905   1.391       .  A
C889        C904   1.392       .  A
C889        C897   1.387       .  A
C890        C902   1.417       .  A
C890        C898   1.370       .  A
C891        C905   1.452       .  A
C891        C899   1.390       .  A
C892        C900   1.381       .  A
C892        C903   1.424       .  A
C893        C901   1.376       .  A
C893        C904   1.432       .  A
C894        C895   1.372       .  A
C894        H906   1.082       .  S
C895        H907   1.072       .  S
C896        C897   1.375       .  A
C896        H908   1.081       .  S
C897        H909   1.082       .  S
C898        C899   1.364       .  A
C898        H910   1.083       .  S
C899        H911   1.050       .  S
C900        C901   1.383       .  A
C900        H912   1.082       .  S
C901        H913   1.071       .  S
N916        C921   1.363       .  A
N916        C920   1.363       .  A
N916        H948   1.033       .  S
N917        C924   1.363       .  A
N917        C925   1.364       .  A
N918        C923   1.341       .  A
N918        C922   1.345       .  A
N918        H949   1.043       .  S
N919        C926   1.358       .  A
N919        C927   1.359       .  A
C920        C928   1.386       .  A
C920        C936   1.435       .  A
C921        C937   1.438       .  A
C921        C929   1.388       .  A
C922        C930   1.383       .  A
C922        C939   1.390       .  A
C923        C938   1.396       .  A
C923        C931   1.389       .  A
C924        C936   1.427       .  A
C924        C932   1.378       .  A
C925        C939   1.448       .  A
C925        C933   1.387       .  A
C926        C934   1.388       .  A
C926        C937   1.434       .  A
C927        C935   1.385       .  A
C927        C938   1.430       .  A
C928        C929   1.382       .  A
C928        H940   1.080       .  S
C929        H941   1.081       .  S
C930        C931   1.365       .  A
C930        H942   1.079       .  S
C931        H943   1.079       .  S
C932        C933   1.375       .  A
C932        H944   1.082       .  S
C933        H945   1.062       .  S
C934        C935   1.385       .  A
C934        H946   1.082       .  S
C935        H947   1.081       .  S
N950        C955   1.359       .  A
N950        C954   1.356       .  A
N950        H982   1.037       .  S
N951        C958   1.355       .  A
N951        C959   1.358       .  A
N952        C957   1.336       .  A
N952        C956   1.344       .  A
N952        H983   1.043       .  S
N953        C960   1.359       .  A
N953        C961   1.355       .  A
C954        C962   1.384       .  A
C954        C970   1.423       .  A
C955        C971   1.421       .  A
C955        C963   1.384       .  A
C956        C964   1.387       .  A
C956        C973   1.389       .  A
C957        C972   1.382       .  A
C957        C965   1.387       .  A
C958        C970   1.420       .  A
C958        C966   1.383       .  A
C959        C973   1.437       .  A
C959        C967   1.390       .  A
C960        C968   1.385       .  A
C960        C971   1.427       .  A
C961        C969   1.387       .  A
C961        C972   1.427       .  A
C962        C963   1.372       .  A
C962        H974   1.071       .  S
C963        H975   1.081       .  S
C964        C965   1.368       .  A
C964        H976   1.081       .  S
C965        H977   1.083       .  S
C966        C967   1.380       .  A
C966        H978   1.082   1_556  S
C967        H979   1.080   1_556  S
C968        C969   1.386       .  A
C968        H980   1.082       .  S
C969        H981   1.080       .  S
C972       C1958   1.465       .  S
C984       C1198   1.508       .  S
C984        N985   1.368       .  A
C984        N989   1.367       .  A
N985        C986   1.369       .  A
C986       C1165   1.511       .  S
C986        N987   1.369       .  A
N987        C988   1.367       .  A
C988       C1011   1.510       .  S
C988        N989   1.366       .  A
N990        C995   1.362       .  A
N990        C994   1.361       .  A
N990       H1022   1.034       .  S
N991        C998   1.362       .  A
N991        C999   1.364       .  A
N992        C997   1.342       .  A
N992        C996   1.346       .  A
N992       H1023   1.042       .  S
N993       C1000   1.358       .  A
N993       C1001   1.357       .  A
C994       C1002   1.385       .  A
C994       C1010   1.431       .  A
C995       C1011   1.429       .  A
C995       C1003   1.384       .  A
C996       C1004   1.388       .  A
C996       C1013   1.397       .  A
C997       C1012   1.390       .  A
C997       C1005   1.384       .  A
C998       C1010   1.433       .  A
C998       C1006   1.382       .  A
C999       C1013   1.447       .  A
C999       C1007   1.392       .  A
C1000      C1008   1.387       .  A
C1000      C1011   1.428       .  A
C1001      C1009   1.386       .  A
C1001      C1012   1.426       .  A
C1002      C1003   1.372       .  A
C1002      H1014   1.075       .  S
C1003      H1015   1.077       .  S
C1004      C1005   1.368       .  A
C1004      H1016   1.079       .  S
C1005      H1017   1.083       .  S
C1006      C1007   1.384       .  A
C1006      H1018   1.082       .  S
C1007      H1019   1.077       .  S
C1008      C1009   1.386       .  A
C1008      H1020   1.082       .  S
C1009      H1021   1.081       .  S
C1010      C1038   1.516       .  S
C1024      C1164   1.490       .  S
C1024      N1025   1.357       .  A
C1024      N1029   1.365       .  A
N1025      C1026   1.358       .  A
C1026      C1130   1.495   1_554  S
C1026      N1027   1.369       .  A
N1027      C1028   1.369       .  A
C1028      C1096   1.507       .  S
C1028      N1029   1.364       .  A
C1030      C1063   1.504       .  S
C1030      N1031   1.365       .  A
C1030      N1035   1.366       .  A
N1031      C1032   1.366       .  A
C1032      C1131   1.516   1_554  S
C1032      N1033   1.374       .  A
N1033      C1034   1.374       .  A
C1034      C1199   1.518       .  S
C1034      N1035   1.366       .  A
C1036      C1097   1.513       .  S
C1036      N1037   1.370       .  A
C1036      N1041   1.371       .  A
N1037      C1038   1.369       .  A
C1038      N1039   1.369       .  A
N1039      C1040   1.367       .  A
C1040      C1062   1.516       .  S
C1040      N1041   1.367       .  A
N1042      C1047   1.365       .  A
N1042      C1046   1.365       .  A
N1042      H1074   1.034       .  S
N1043      C1050   1.354       .  A
N1043      C1051   1.359       .  A
N1044      C1049   1.339       .  A
N1044      C1048   1.339       .  A
N1044      H1075   1.044       .  S
N1045      C1052   1.348       .  A
N1045      C1053   1.354       .  A
C1046      C1054   1.385       .  A
C1046      C1062   1.440       .  A
C1047      C1063   1.438       .  A
C1047      C1055   1.385       .  A
C1048      C1056   1.383       .  A
C1048      C1065   1.383       .  A
C1049      C1064   1.389       .  A
C1049      C1057   1.388       .  A
C1050      C1062   1.430       .  A
C1050      C1058   1.387       .  A
C1051      C1065   1.432       .  A
C1051      C1059   1.384       .  A
C1052      C1060   1.390       .  A
C1052      C1063   1.421       .  A
C1053      C1061   1.383       .  A
C1053      C1064   1.415       .  A
C1054      C1055   1.378       .  A
C1054      H1066   1.073       .  S
C1055      H1067   1.078       .  S
C1056      C1057   1.368       .  A
C1056      H1068   1.080       .  S
C1057      H1069   1.080       .  S
C1058      C1059   1.387       .  A
C1058      H1070   1.082       .  S
C1059      H1071   1.075       .  S
C1060      C1061   1.388       .  A
C1060      H1072   1.082       .  S
C1061      H1073   1.082       .  S
N1076      C1081   1.361       .  A
N1076      C1080   1.362       .  A
N1076      H1108   1.035       .  S
N1077      C1084   1.358       .  A
N1077      C1085   1.360       .  A
N1078      C1083   1.340       .  A
N1078      C1082   1.344       .  A
N1078      H1109   1.043       .  S
N1079      C1086   1.357       .  A
N1079      C1087   1.359       .  A
C1080      C1088   1.385       .  A
C1080      C1096   1.429       .  A
C1081      C1097   1.435       .  A
C1081      C1089   1.388       .  A
C1082      C1090   1.384       .  A
C1082      C1099   1.387       .  A
C1083      C1098   1.391       .  A
C1083      C1091   1.389       .  A
C1084      C1096   1.424       .  A
C1084      C1092   1.382       .  A
C1085      C1099   1.436       .  A
C1085      C1093   1.389       .  A
C1086      C1094   1.389       .  A
C1086      C1097   1.435       .  A
C1087      C1095   1.386       .  A
C1087      C1098   1.430       .  A
C1088      C1089   1.377       .  A
C1088      H1100   1.082       .  S
C1089      H1101   1.077       .  S
C1090      C1091   1.364       .  A
C1090      H1102   1.080       .  S
C1091      H1103   1.081       .  S
C1092      C1093   1.377       .  A
C1092      H1104   1.082       .  S
C1093      H1105   1.074       .  S
C1094      C1095   1.391       .  A
C1094      H1106   1.082       .  S
C1095      H1107   1.083       .  S
N1110      C1115   1.363       .  A
N1110      C1114   1.357       .  A
N1110      H1142   1.033       .  S
N1111      C1118   1.355       .  A
N1111      C1119   1.360       .  A
N1112      C1117   1.341       .  A
N1112      C1116   1.343       .  A
N1112      H1143   1.041       .  S
N1113      C1120   1.361       .  A
N1113      C1121   1.361       .  A
C1114      C1122   1.391   1_556  A
C1114      C1130   1.432       .  A
C1115      C1131   1.431       .  A
C1115      C1123   1.387   1_556  A
C1116      C1124   1.384       .  A
C1116      C1133   1.390       .  A
C1117      C1132   1.395       .  A
C1117      C1125   1.389       .  A
C1118      C1130   1.430       .  A
C1118      C1126   1.390       .  A
C1119      C1133   1.427       .  A
C1119      C1127   1.385       .  A
C1120      C1128   1.379       .  A
C1120      C1131   1.425       .  A
C1121      C1129   1.391       .  A
C1121      C1132   1.443       .  A
C1122      C1123   1.381       .  A
C1122      H1134   1.082       .  S
C1123      H1135   1.082       .  S
C1124      C1125   1.371       .  A
C1124      H1136   1.083       .  S
C1125      H1137   1.079       .  S
C1126      C1127   1.385       .  A
C1126      H1138   1.082       .  S
C1127      H1139   1.082       .  S
C1128      C1129   1.377       .  A
C1128      H1140   1.082       .  S
C1129      H1141   1.073       .  S
C1133      C1230   1.484       .  S
N1144      C1149   1.362       .  A
N1144      C1148   1.354       .  A
N1144      H1176   1.038       .  S
N1145      C1152   1.354       .  A
N1145      C1153   1.361       .  A
N1146      C1151   1.343       .  A
N1146      C1150   1.343       .  A
N1146      H1177   1.045       .  S
N1147      C1154   1.359       .  A
N1147      C1155   1.355       .  A
C1148      C1156   1.393       .  A
C1148      C1164   1.429       .  A
C1149      C1165   1.423       .  A
C1149      C1157   1.384       .  A
C1150      C1158   1.390       .  A
C1150      C1167   1.398       .  A
C1151      C1166   1.387       .  A
C1151      C1159   1.382       .  A
C1152      C1164   1.429       .  A
C1152      C1160   1.389       .  A
C1153      C1167   1.429       .  A
C1153      C1161   1.387       .  A
C1154      C1162   1.379       .  A
C1154      C1165   1.418       .  A
C1155      C1163   1.395       .  A
C1155      C1166   1.439       .  A
C1156      C1157   1.378       .  A
C1156      H1168   1.081       .  S
C1157      H1169   1.082       .  S
C1158      C1159   1.367       .  A
C1158      H1170   1.079       .  S
C1159      H1171   1.082       .  S
C1160      C1161   1.385       .  A
C1160      H1172   1.082       .  S
C1161      H1173   1.081       .  S
C1162      C1163   1.376       .  A
C1162      H1174   1.082       .  S
C1163      H1175   1.079       .  S
N1178      C1183   1.357       .  A
N1178      C1182   1.361       .  A
N1178      H1210   1.036       .  S
N1179      C1186   1.360       .  A
N1179      C1187   1.361       .  A
N1180      C1185   1.334       .  A
N1180      C1184   1.337       .  A
N1180      H1211   1.042       .  S
N1181      C1188   1.363       .  A
N1181      C1189   1.364       .  A
C1182      C1190   1.381       .  A
C1182      C1198   1.420       .  A
C1183      C1199   1.429       .  A
C1183      C1191   1.388       .  A
C1184      C1192   1.385       .  A
C1184      C1201   1.381       .  A
C1185      C1200   1.384       .  A
C1185      C1193   1.388       .  A
C1186      C1198   1.415       .  A
C1186      C1194   1.375       .  A
C1187      C1201   1.444       .  A
C1187      C1195   1.388       .  A
C1188      C1196   1.386       .  A
C1188      C1199   1.442       .  A
C1189      C1197   1.385       .  A
C1189      C1200   1.447       .  A
C1190      C1191   1.371       .  A
C1190      H1202   1.077       .  S
C1191      H1203   1.076       .  S
C1192      C1193   1.369       .  A
C1192      H1204   1.080       .  S
C1193      H1205   1.081       .  S
C1194      C1195   1.376       .  A
C1194      H1206   1.083       .  S
C1195      H1207   1.061       .  S
C1196      C1197   1.392       .  A
C1196      H1208   1.082       .  S
C1197      H1209   1.076       .  S
O1212      C1228   1.275       .  A
O1212     Zn1218   1.949       .  S
C1213      O1229   1.269       .  A
C1213      O1226   1.277       .  A
C1213      C1635   1.468       .  S
O1214      C1227   1.290       .  A
O1214     Cd1221   2.193       .  S
O1215      C1233   1.249       .  A
O1215     Cd1224   1.986       .  S
O1216      C1230   1.284       .  A
O1216     Cd1220   2.089       .  S
O1217      C1228   1.271       .  A
O1217     Cd1220   2.099       .  S
Zn1218     O1229   2.026       .  S
Zn1218     O1231   1.895       .  S
Zn1218     O1223   1.832       .  S
O1219      C1230   1.274       .  A
O1219     Cd1224   2.078       .  S
Cd1220     O1222   1.949       .  S
Cd1220     O1223   1.920       .  S
Cd1221     O1225   2.146       .  S
Cd1221     O1234   2.180       .  S
Cd1221     O1223   1.963       .  S
O1222      C1232   1.256       .  A
O1223     Cd1224   1.920       .  S
Cd1224     O1226   2.042       .  S
O1225      C1232   1.292       .  A
C1227      O1231   1.241       .  A
C1227      C1829   1.494       .  S
C1228      C1373   1.508       .  S
C1233      O1234   1.285       .  A
O1235      C1251   1.270       .  A
O1235     Zn1241   1.989   1_545  S
C1236      O1252   1.272       .  A
C1236      O1249   1.263       .  A
O1237      C1250   1.294       .  A
O1237     Cd1244   2.218   1_655  S
O1238      C1256   1.245       .  A
O1238     Cd1247   1.964   1_455  S
O1239      C1253   1.283       .  A
O1239     Cd1243   2.117   1_455  S
O1240      C1251   1.286       .  A
O1240     Cd1243   2.106   1_545  S
Zn1241     O1252   1.949       .  S
Zn1241     O1254   1.919   1_565  S
Zn1241     O1246   1.831       .  S
O1242      C1253   1.271       .  A
O1242     Cd1247   2.069   1_455  S
Cd1243     O1245   1.946   1_665  S
Cd1243     O1246   1.919       .  S
Cd1244     O1248   2.152       .  S
Cd1244     O1257   2.230   1_545  S
Cd1244     O1246   1.963   1_445  S
O1245      C1255   1.253       .  A
O1246     Cd1247   1.903       .  S
Cd1247     O1249   2.032       .  S
O1248      C1255   1.291       .  A
C1250      O1254   1.251       .  A
C1250      C1440   1.523       .  S
C1251      C1931   1.478       .  S
C1255      C2039   1.486       .  S
C1256      O1257   1.292       .  A
C1256      C1668   1.522       .  S
C1258      C1473   1.500       .  S
C1258      N1259   1.363       .  A
C1258      N1263   1.365       .  A
N1259      C1260   1.363       .  A
C1260      C1405   1.504   1_545  S
C1260      N1261   1.368       .  A
N1261      C1262   1.368       .  A
C1262      C1330   1.508       .  S
C1262      N1263   1.366       .  A
C1264      C1439   1.519       .  S
C1264      N1265   1.367       .  A
C1264      N1269   1.374       .  A
N1265      C1266   1.363       .  A
C1266      C1297   1.514       .  S
C1266      N1267   1.368       .  A
N1267      C1268   1.371       .  A
C1268      C1404   1.523   1_545  S
C1268      N1269   1.374       .  A
C1270      C1371   1.517       .  S
C1270      N1271   1.367       .  A
C1270      N1275   1.369       .  A
N1271      C1272   1.369       .  A
C1272      C1331   1.515       .  S
C1272      N1273   1.369       .  A
N1273      C1274   1.370       .  A
C1274      C1296   1.514       .  S
C1274      N1275   1.370       .  A
N1276      C1281   1.367       .  A
N1276      C1280   1.359       .  A
N1276      H1308   1.036       .  S
N1277      C1284   1.361       .  A
N1277      C1285   1.365       .  A
N1278      C1283   1.342       .  A
N1278      C1282   1.346       .  A
N1278      H1309   1.042       .  S
N1279      C1286   1.355       .  A
N1279      C1287   1.352       .  A
C1280      C1288   1.390       .  A
C1280      C1296   1.435       .  A
C1281      C1297   1.433       .  A
C1281      C1289   1.383       .  A
C1282      C1290   1.387       .  A
C1282      C1299   1.393       .  A
C1283      C1298   1.393       .  A
C1283      C1291   1.386       .  A
C1284      C1296   1.442       .  A
C1284      C1292   1.390       .  A
C1285      C1299   1.440       .  A
C1285      C1293   1.387       .  A
C1286      C1294   1.384       .  A
C1286      C1297   1.415       .  A
C1287      C1295   1.386       .  A
C1287      C1298   1.422       .  A
C1288      C1289   1.379       .  A
C1288      H1300   1.081       .  S
C1289      H1301   1.077       .  S
C1290      C1291   1.367       .  A
C1290      H1302   1.081       .  S
C1291      H1303   1.082       .  S
C1292      C1293   1.393       .  A
C1292      H1304   1.082       .  S
C1293      H1305   1.082       .  S
C1294      C1295   1.375       .  A
C1294      H1306   1.082       .  S
C1295      H1307   1.077       .  S
N1310      C1315   1.363       .  A
N1310      C1314   1.360       .  A
N1310      H1342   1.035       .  S
N1311      C1318   1.361       .  A
N1311      C1319   1.364       .  A
N1312      C1317   1.341       .  A
N1312      C1316   1.347       .  A
N1312      H1343   1.041       .  S
N1313      C1320   1.359       .  A
N1313      C1321   1.358       .  A
C1314      C1322   1.388       .  A
C1314      C1330   1.431       .  A
C1315      C1331   1.433       .  A
C1315      C1323   1.388       .  A
C1316      C1324   1.385       .  A
C1316      C1333   1.393       .  A
C1317      C1332   1.393       .  A
C1317      C1325   1.388       .  A
C1318      C1330   1.432       .  A
C1318      C1326   1.384       .  A
C1319      C1333   1.444       .  A
C1319      C1327   1.390       .  A
C1320      C1328   1.387       .  A
C1320      C1331   1.431       .  A
C1321      C1329   1.387       .  A
C1321      C1332   1.429       .  A
C1322      C1323   1.377       .  A
C1322      H1334   1.082       .  S
C1323      H1335   1.081       .  S
C1324      C1325   1.369       .  A
C1324      H1336   1.081       .  S
C1325      H1337   1.082       .  S
C1326      C1327   1.381       .  A
C1326      H1338   1.082       .  S
C1327      H1339   1.078       .  S
C1328      C1329   1.387       .  A
C1328      H1340   1.082       .  S
C1329      H1341   1.083       .  S
C1344      C1472   1.515       .  S
C1344      N1345   1.372       .  A
C1344      N1349   1.368       .  A
N1345      C1346   1.371       .  A
C1346      C1370   1.522       .  S
C1346      N1347   1.373       .  A
N1347      C1348   1.371       .  A
C1348      C1438   1.520       .  S
C1348      N1349   1.366       .  A
N1350      C1355   1.366       .  A
N1350      C1354   1.361       .  A
N1350      H1382   1.034       .  S
N1351      C1358   1.361       .  A
N1351      C1359   1.366       .  A
N1352      C1357   1.338       .  A
N1352      C1356   1.339       .  A
N1352      H1383   1.044       .  S
N1353      C1360   1.358       .  A
N1353      C1361   1.359       .  A
C1354      C1362   1.390       .  A
C1354      C1370   1.439       .  A
C1355      C1371   1.432       .  A
C1355      C1363   1.384       .  A
C1356      C1364   1.388       .  A
C1356      C1373   1.388       .  A
C1357      C1372   1.383       .  A
C1357      C1365   1.384       .  A
C1358      C1370   1.444       .  A
C1358      C1366   1.389       .  A
C1359      C1373   1.445       .  A
C1359      C1367   1.386       .  A
C1360      C1368   1.380       .  A
C1360      C1371   1.422       .  A
C1361      C1369   1.389       .  A
C1361      C1372   1.438       .  A
C1362      C1363   1.379       .  A
C1362      H1374   1.078       .  S
C1363      H1375   1.082       .  S
C1364      C1365   1.369       .  A
C1364      H1376   1.080       .  S
C1365      H1377   1.080       .  S
C1366      C1367   1.394       .  A
C1366      H1378   1.082       .  S
C1367      H1379   1.079       .  S
C1368      C1369   1.377       .  A
C1368      H1380   1.082       .  S
C1369      H1381   1.070       .  S
N1384      C1389   1.361       .  A
N1384      C1388   1.362       .  A
N1384      H1416   1.034       .  S
N1385      C1392   1.362       .  A
N1385      C1393   1.361       .  A
N1386      C1391   1.344       .  A
N1386      C1390   1.340       .  A
N1386      H1417   1.044       .  S
N1387      C1394   1.357       .  A
N1387      C1395   1.361       .  A
C1388      C1396   1.388   1_565  A
C1388      C1404   1.434       .  A
C1389      C1405   1.429       .  A
C1389      C1397   1.387   1_565  A
C1390      C1398   1.392       .  A
C1390      C1407   1.396       .  A
C1391      C1406   1.384       .  A
C1391      C1399   1.380       .  A
C1392      C1404   1.440       .  A
C1392      C1400   1.386       .  A
C1393      C1407   1.436       .  A
C1393      C1401   1.381       .  A
C1394      C1402   1.384       .  A
C1394      C1405   1.427       .  A
C1395      C1403   1.389       .  A
C1395      C1406   1.437       .  A
C1396      C1397   1.374       .  A
C1396      H1408   1.079       .  S
C1397      H1409   1.081       .  S
C1398      C1399   1.365       .  A
C1398      H1410   1.079       .  S
C1399      H1411   1.081       .  S
C1400      C1401   1.392       .  A
C1400      H1412   1.082       .  S
C1401      H1413   1.077       .  S
C1402      C1403   1.382       .  A
C1402      H1414   1.082       .  S
C1403      H1415   1.076       .  S
N1418      C1423   1.359       .  A
N1418      C1422   1.361       .  A
N1418      H1450   1.038       .  S
N1419      C1426   1.364       .  A
N1419      C1427   1.362       .  A
N1420      C1425   1.346       .  A
N1420      C1424   1.343       .  A
N1420      H1451   1.043       .  S
N1421      C1428   1.367       .  A
N1421      C1429   1.367       .  A
C1422      C1430   1.383       .  A
C1422      C1438   1.425       .  A
C1423      C1439   1.427       .  A
C1423      C1431   1.389       .  A
C1424      C1432   1.387       .  A
C1424      C1441   1.397       .  A
C1425      C1440   1.399       .  A
C1425      C1433   1.386       .  A
C1426      C1438   1.428       .  A
C1426      C1434   1.380       .  A
C1427      C1441   1.445       .  A
C1427      C1435   1.392       .  A
C1428      C1436   1.378       .  A
C1428      C1439   1.433       .  A
C1429      C1437   1.386       .  A
C1429      C1440   1.455       .  A
C1430      C1431   1.375       .  A
C1430      H1442   1.074       .  S
C1431      H1443   1.081       .  S
C1432      C1433   1.374       .  A
C1432      H1444   1.081       .  S
C1433      H1445   1.080       .  S
C1434      C1435   1.381       .  A
C1434      H1446   1.082       .  S
C1435      H1447   1.076       .  S
C1436      C1437   1.380       .  A
C1436      H1448   1.082       .  S
C1437      H1449   1.061       .  S
C1441      C1963   1.503       .  S
N1452      C1457   1.359       .  A
N1452      C1456   1.362       .  A
N1452      H1484   1.035       .  S
N1453      C1460   1.362       .  A
N1453      C1461   1.361       .  A
N1454      C1459   1.341       .  A
N1454      C1458   1.341       .  A
N1454      H1485   1.041       .  S
N1455      C1462   1.355       .  A
N1455      C1463   1.359       .  A
C1456      C1464   1.386       .  A
C1456      C1472   1.429       .  A
C1457      C1473   1.431       .  A
C1457      C1465   1.389       .  A
C1458      C1466   1.389       .  A
C1458      C1475   1.391       .  A
C1459      C1474   1.386       .  A
C1459      C1467   1.383       .  A
C1460      C1472   1.428       .  A
C1460      C1468   1.380       .  A
C1461      C1475   1.445       .  A
C1461      C1469   1.392       .  A
C1462      C1470   1.388       .  A
C1462      C1473   1.427       .  A
C1463      C1471   1.383       .  A
C1463      C1474   1.426       .  A
C1464      C1465   1.378       .  A
C1464      H1476   1.082       .  S
C1465      H1477   1.080       .  S
C1466      C1467   1.366       .  A
C1466      H1478   1.079       .  S
C1467      H1479   1.083       .  S
C1468      C1469   1.378       .  A
C1468      H1480   1.082       .  S
C1469      H1481   1.073       .  S
C1470      C1471   1.383       .  A
C1470      H1482   1.082       .  S
C1471      H1483   1.078       .  S
C1486      C1633   1.512   1_455  S
C1486      N1487   1.367       .  A
C1486      N1491   1.373       .  A
N1487      C1488   1.365       .  A
C1488      C1513   1.508       .  S
C1488      N1489   1.365       .  A
N1489      C1490   1.365       .  A
C1490      C1667   1.517       .  S
C1490      N1491   1.372       .  A
N1492      C1497   1.357       .  A
N1492      C1496   1.365       .  A
N1492      H1524   1.037       .  S
N1493      C1500   1.360       .  A
N1493      C1501   1.354       .  A
N1494      C1499   1.351       .  A
N1494      C1498   1.340       .  A
N1494      H1525   1.042       .  S
N1495      C1502   1.361       .  A
N1495      C1503   1.366       .  A
C1496      C1504   1.384       .  A
C1496      C1512   1.427       .  A
C1497      C1513   1.430       .  A
C1497      C1505   1.386       .  A
C1498      C1506   1.388       .  A
C1498      C1515   1.395       .  A
C1499      C1514   1.399       .  A
C1499      C1507   1.386       .  A
C1500      C1512   1.428       .  A
C1500      C1508   1.385       .  A
C1501      C1515   1.426       .  A
C1501      C1509   1.388       .  A
C1502      C1510   1.380       .  A
C1502      C1513   1.428       .  A
C1503      C1511   1.388       .  A
C1503      C1514   1.449       .  A
C1504      C1505   1.376       .  A
C1504      H1516   1.082       .  S
C1505      H1517   1.071       .  S
C1506      C1507   1.370       .  A
C1506      H1518   1.083       .  S
C1507      H1519   1.080       .  S
C1508      C1509   1.386       .  A
C1508      H1520   1.082       .  S
C1509      H1521   1.082       .  S
C1510      C1511   1.376       .  A
C1510      H1522   1.082       .  S
C1511      H1523   1.066       .  S
C1512      C1534   1.519       .  S
C1526      C1559   1.509       .  S
C1526      N1527   1.367       .  A
C1526      N1531   1.368       .  A
N1527      C1528   1.366       .  A
C1528      C1666   1.515       .  S
C1528      N1529   1.368       .  A
N1529      C1530   1.369       .  A
C1530      C1701   1.509       .  S
C1530      N1531   1.367       .  A
C1532      C1598   1.515       .  S
C1532      N1533   1.370       .  A
C1532      N1537   1.367       .  A
N1533      C1534   1.370       .  A
C1534      N1535   1.372       .  A
N1535      C1536   1.371       .  A
C1536      C1558   1.517       .  S
C1536      N1537   1.367       .  A
N1538      C1543   1.358       .  A
N1538      C1542   1.358       .  A
N1538      H1570   1.038       .  S
N1539      C1546   1.366       .  A
N1539      C1547   1.364       .  A
N1540      C1545   1.349       .  A
N1540      C1544   1.348       .  A
N1540      H1571   1.042       .  S
N1541      C1548   1.364       .  A
N1541      C1549   1.363       .  A
C1542      C1550   1.388       .  A
C1542      C1558   1.426       .  A
C1543      C1559   1.420       .  A
C1543      C1551   1.386       .  A
C1544      C1552   1.388       .  A
C1544      C1561   1.405       .  A
C1545      C1560   1.402       .  A
C1545      C1553   1.385       .  A
C1546      C1558   1.431       .  A
C1546      C1554   1.379       .  A
C1547      C1561   1.451       .  A
C1547      C1555   1.394       .  A
C1548      C1556   1.376       .  A
C1548      C1559   1.424       .  A
C1549      C1557   1.393       .  A
C1549      C1560   1.448       .  A
C1550      C1551   1.377       .  A
C1550      H1562   1.078       .  S
C1551      H1563   1.083       .  S
C1552      C1553   1.374       .  A
C1552      H1564   1.080       .  S
C1553      H1565   1.081       .  S
C1554      C1555   1.378       .  A
C1554      H1566   1.082       .  S
C1555      H1567   1.073       .  S
C1556      C1557   1.372       .  A
C1556      H1568   1.083       .  S
C1557      H1569   1.069       .  S
C1572      C1700   1.507       .  S
C1572      N1573   1.370       .  A
C1572      N1577   1.367       .  A
N1573      C1574   1.369       .  A
C1574      C1599   1.505       .  S
C1574      N1575   1.361       .  A
N1575      C1576   1.360       .  A
C1576      C1632   1.497   1_455  S
C1576      N1577   1.365       .  A
N1578      C1583   1.360       .  A
N1578      C1582   1.363       .  A
N1578      H1610   1.032       .  S
N1579      C1586   1.360       .  A
N1579      C1587   1.358       .  A
N1580      C1585   1.346       .  A
N1580      C1584   1.342       .  A
N1580      H1611   1.040       .  S
N1581      C1588   1.359       .  A
N1581      C1589   1.361       .  A
C1582      C1590   1.387       .  A
C1582      C1598   1.433       .  A
C1583      C1599   1.432       .  A
C1583      C1591   1.387       .  A
C1584      C1592   1.387       .  A
C1584      C1601   1.387       .  A
C1585      C1600   1.391       .  A
C1585      C1593   1.388       .  A
C1586      C1598   1.432       .  A
C1586      C1594   1.387       .  A
C1587      C1601   1.430       .  A
C1587      C1595   1.387       .  A
C1588      C1596   1.384       .  A
C1588      C1599   1.429       .  A
C1589      C1597   1.387       .  A
C1589      C1600   1.437       .  A
C1590      C1591   1.377       .  A
C1590      H1602   1.081       .  S
C1591      H1603   1.079       .  S
C1592      C1593   1.360       .  A
C1592      H1604   1.083       .  S
C1593      H1605   1.083       .  S
C1594      C1595   1.385       .  A
C1594      H1606   1.082       .  S
C1595      H1607   1.081       .  S
C1596      C1597   1.374       .  A
C1596      H1608   1.083       .  S
C1597      H1609   1.075       .  S
C1600      C1962   1.489       .  S
N1612      C1617   1.362       .  A
N1612      C1616   1.361       .  A
N1612      H1644   1.035       .  S
N1613      C1620   1.351       .  A
N1613      C1621   1.355       .  A
N1614      C1619   1.338       .  A
N1614      C1618   1.338       .  A
N1614      H1645   1.041       .  S
N1615      C1622   1.358       .  A
N1615      C1623   1.361       .  A
C1616      C1624   1.387   1_655  A
C1616      C1632   1.431       .  A
C1617      C1633   1.432       .  A
C1617      C1625   1.388   1_655  A
C1618      C1626   1.387       .  A
C1618      C1635   1.384       .  A
C1619      C1634   1.381       .  A
C1619      C1627   1.386       .  A
C1620      C1632   1.422       .  A
C1620      C1628   1.388       .  A
C1621      C1635   1.419       .  A
C1621      C1629   1.384       .  A
C1622      C1630   1.388       .  A
C1622      C1633   1.434       .  A
C1623      C1631   1.385       .  A
C1623      C1634   1.434       .  A
C1624      C1625   1.376       .  A
C1624      H1636   1.078       .  S
C1625      H1637   1.082       .  S
C1626      C1627   1.367       .  A
C1626      H1638   1.082       .  S
C1627      H1639   1.082       .  S
C1628      C1629   1.385       .  A
C1628      H1640   1.082       .  S
C1629      H1641   1.081       .  S
C1630      C1631   1.392       .  A
C1630      H1642   1.082       .  S
C1631      H1643   1.082       .  S
N1646      C1651   1.356       .  A
N1646      C1650   1.357       .  A
N1646      H1678   1.032       .  S
N1647      C1654   1.369       .  A
N1647      C1655   1.365       .  A
N1648      C1653   1.346       .  A
N1648      C1652   1.345       .  A
N1648      H1679   1.042       .  S
N1649      C1656   1.369       .  A
N1649      C1657   1.367       .  A
C1650      C1658   1.386       .  A
C1650      C1666   1.422       .  A
C1651      C1667   1.425       .  A
C1651      C1659   1.386       .  A
C1652      C1660   1.385       .  A
C1652      C1669   1.396       .  A
C1653      C1668   1.399       .  A
C1653      C1661   1.387       .  A
C1654      C1666   1.430       .  A
C1654      C1662   1.372       .  A
C1655      C1669   1.457       .  A
C1655      C1663   1.387       .  A
C1656      C1664   1.372       .  A
C1656      C1667   1.431       .  A
C1657      C1665   1.388       .  A
C1657      C1668   1.460       .  A
C1658      C1659   1.375       .  A
C1658      H1670   1.082       .  S
C1659      H1671   1.076       .  S
C1660      C1661   1.375       .  A
C1660      H1672   1.081       .  S
C1661      H1673   1.081       .  S
C1662      C1663   1.368       .  A
C1662      H1674   1.083       .  S
C1663      H1675   1.051       .  S
C1664      C1665   1.372       .  A
C1664      H1676   1.083       .  S
C1665      H1677   1.054       .  S
N1680      C1685   1.364       .  A
N1680      C1684   1.363       .  A
N1680      H1712   1.040       .  S
N1681      C1688   1.352       .  A
N1681      C1689   1.360       .  A
N1682      C1687   1.336       .  A
N1682      C1686   1.337       .  A
N1682      H1713   1.045       .  S
N1683      C1690   1.351       .  A
N1683      C1691   1.360       .  A
C1684      C1692   1.389       .  A
C1684      C1700   1.433       .  A
C1685      C1701   1.432       .  A
C1685      C1693   1.388       .  A
C1686      C1694   1.385       .  A
C1686      C1703   1.385       .  A
C1687      C1702   1.389       .  A
C1687      C1695   1.388       .  A
C1688      C1700   1.430       .  A
C1688      C1696   1.390       .  A
C1689      C1703   1.431       .  A
C1689      C1697   1.386       .  A
C1690      C1698   1.390       .  A
C1690      C1701   1.430       .  A
C1691      C1699   1.383       .  A
C1691      C1702   1.428       .  A
C1692      C1693   1.378       .  A
C1692      H1704   1.081       .  S
C1693      H1705   1.081       .  S
C1694      C1695   1.372       .  A
C1694      H1706   1.079       .  S
C1695      H1707   1.083       .  S
C1696      C1697   1.394       .  A
C1696      H1708   1.082       .  S
C1697      H1709   1.082       .  S
C1698      C1699   1.396       .  A
C1698      H1710   1.082       .  S
C1699      H1711   1.080       .  S
C1714      C1740   1.502       .  S
C1714      N1715   1.365       .  A
C1714      N1719   1.364       .  A
N1715      C1716   1.365       .  A
C1716      C1929   1.504       .  S
C1716      N1717   1.364       .  A
N1717      C1718   1.366       .  A
C1718      C1861   1.500       .  S
C1718      N1719   1.365       .  A
N1720      C1725   1.356       .  A
N1720      C1724   1.359       .  A
N1720      H1752   1.038       .  S
N1721      C1728   1.357       .  A
N1721      C1729   1.355       .  A
N1722      C1727   1.341       .  A
N1722      C1726   1.343       .  A
N1722      H1753   1.042       .  S
N1723      C1730   1.359       .  A
N1723      C1731   1.358       .  A
C1724      C1732   1.384       .  A
C1724      C1740   1.421       .  A
C1725      C1741   1.422       .  A
C1725      C1733   1.386       .  A
C1726      C1734   1.388       .  A
C1726      C1743   1.393       .  A
C1727      C1742   1.387       .  A
C1727      C1735   1.385       .  A
C1728      C1740   1.416       .  A
C1728      C1736   1.381       .  A
C1729      C1743   1.436       .  A
C1729      C1737   1.393       .  A
C1730      C1738   1.386       .  A
C1730      C1741   1.428       .  A
C1731      C1739   1.385       .  A
C1731      C1742   1.427       .  A
C1732      C1733   1.374       .  A
C1732      H1744   1.076       .  S
C1733      H1745   1.078       .  S
C1734      C1735   1.368       .  A
C1734      H1746   1.082       .  S
C1735      H1747   1.083       .  S
C1736      C1737   1.377       .  A
C1736      H1748   1.082       .  S
C1737      H1749   1.080       .  S
C1738      C1739   1.385       .  A
C1738      H1750   1.082       .  S
C1739      H1751   1.080       .  S
C1741      C1754   1.503       .  S
C1754      N1755   1.363       .  A
C1754      N1759   1.370       .  A
N1755      C1756   1.362       .  A
C1756      C1826   1.500       .  S
C1756      N1757   1.364       .  A
N1757      C1758   1.365       .  A
C1758      C1894   1.507       .  S
C1758      N1759   1.369       .  A
C1760      C1860   1.508       .  S
C1760      N1761   1.367       .  A
C1760      N1765   1.367       .  A
N1761      C1762   1.366       .  A
C1762      C1792   1.508   1_655  S
C1762      N1763   1.364       .  A
N1763      C1764   1.367       .  A
C1764      C1895   1.502       .  S
C1764      N1765   1.367       .  A
C1766      C1793   1.523   1_655  S
C1766      N1767   1.370       .  A
C1766      N1771   1.373       .  A
N1767      C1768   1.370       .  A
C1768      C1928   1.510       .  S
C1768      N1769   1.365       .  A
N1769      C1770   1.365       .  A
C1770      C1827   1.515       .  S
C1770      N1771   1.373       .  A
N1772      C1777   1.359       .  A
N1772      C1776   1.359       .  A
N1772      H1804   1.034       .  S
N1773      C1780   1.362       .  A
N1773      C1781   1.358       .  A
N1774      C1779   1.352       .  A
N1774      C1778   1.354       .  A
N1774      H1805   1.038       .  S
N1775      C1782   1.370       .  A
N1775      C1783   1.366       .  A
C1776      C1784   1.385   1_455  A
C1776      C1792   1.427       .  A
C1777      C1793   1.426       .  A
C1777      C1785   1.386   1_455  A
C1778      C1786   1.388       .  A
C1778      C1795   1.410       .  A
C1779      C1794   1.409       .  A
C1779      C1787   1.387       .  A
C1780      C1792   1.424       .  A
C1780      C1788   1.382       .  A
C1781      C1795   1.436       .  A
C1781      C1789   1.391       .  A
C1782      C1790   1.376       .  A
C1782      C1793   1.435       .  A
C1783      C1791   1.391       .  A
C1783      C1794   1.456       .  A
C1784      C1785   1.376       .  A
C1784      H1796   1.077       .  S
C1785      H1797   1.079       .  S
C1786      C1787   1.364       .  A
C1786      H1798   1.080       .  S
C1787      H1799   1.082       .  S
C1788      C1789   1.375       .  A
C1788      H1800   1.082       .  S
C1789      H1801   1.080       .  S
C1790      C1791   1.372       .  A
C1790      H1802   1.083       .  S
C1791      H1803   1.067       .  S
N1806      C1811   1.363       .  A
N1806      C1810   1.357       .  A
N1806      H1838   1.031       .  S
N1807      C1814   1.359       .  A
N1807      C1815   1.362       .  A
N1808      C1813   1.339       .  A
N1808      C1812   1.345       .  A
N1808      H1839   1.040       .  S
N1809      C1816   1.360       .  A
N1809      C1817   1.356       .  A
C1810      C1818   1.386       .  A
C1810      C1826   1.429       .  A
C1811      C1827   1.431       .  A
C1811      C1819   1.386       .  A
C1812      C1820   1.386       .  A
C1812      C1829   1.387       .  A
C1813      C1828   1.384       .  A
C1813      C1821   1.388       .  A
C1814      C1826   1.426       .  A
C1814      C1822   1.381       .  A
C1815      C1829   1.441       .  A
C1815      C1823   1.386       .  A
C1816      C1824   1.386       .  A
C1816      C1827   1.433       .  A
C1817      C1825   1.386       .  A
C1817      C1828   1.430       .  A
C1818      C1819   1.374       .  A
C1818      H1830   1.076       .  S
C1819      H1831   1.080       .  S
C1820      C1821   1.362       .  A
C1820      H1832   1.083       .  S
C1821      H1833   1.083       .  S
C1822      C1823   1.372       .  A
C1822      H1834   1.083       .  S
C1823      H1835   1.067       .  S
C1824      C1825   1.385       .  A
C1824      H1836   1.082       .  S
C1825      H1837   1.079       .  S
C1828      C1960   1.467       .  S
N1840      C1845   1.361       .  A
N1840      C1844   1.360       .  A
N1840      H1872   1.032       .  S
N1841      C1848   1.359       .  A
N1841      C1849   1.361       .  A
N1842      C1847   1.344       .  A
N1842      C1846   1.346       .  A
N1842      H1873   1.042       .  S
N1843      C1850   1.354       .  A
N1843      C1851   1.355       .  A
C1844      C1852   1.388       .  A
C1844      C1860   1.431       .  A
C1845      C1861   1.431       .  A
C1845      C1853   1.388       .  A
C1846      C1854   1.389       .  A
C1846      C1863   1.399       .  A
C1847      C1862   1.389       .  A
C1847      C1855   1.382       .  A
C1848      C1860   1.431       .  A
C1848      C1856   1.384       .  A
C1849      C1863   1.441       .  A
C1849      C1857   1.390       .  A
C1850      C1858   1.388       .  A
C1850      C1861   1.427       .  A
C1851      C1859   1.386       .  A
C1851      C1862   1.422       .  A
C1852      C1853   1.375       .  A
C1852      H1864   1.079       .  S
C1853      H1865   1.082       .  S
C1854      C1855   1.368       .  A
C1854      H1866   1.080       .  S
C1855      H1867   1.083       .  S
C1856      C1857   1.383       .  A
C1856      H1868   1.082       .  S
C1857      H1869   1.078       .  S
C1858      C1859   1.385       .  A
C1858      H1870   1.082       .  S
C1859      H1871   1.082       .  S
N1874      C1879   1.360       .  A
N1874      C1878   1.360       .  A
N1874      H1906   1.037       .  S
N1875      C1882   1.357       .  A
N1875      C1883   1.360       .  A
N1876      C1881   1.337       .  A
N1876      C1880   1.339       .  A
N1876      H1907   1.044       .  S
N1877      C1884   1.354       .  A
N1877      C1885   1.358       .  A
C1878      C1886   1.385       .  A
C1878      C1894   1.427       .  A
C1879      C1895   1.430       .  A
C1879      C1887   1.388       .  A
C1880      C1888   1.385       .  A
C1880      C1897   1.384       .  A
C1881      C1896   1.385       .  A
C1881      C1889   1.387       .  A
C1882      C1894   1.423       .  A
C1882      C1890   1.381       .  A
C1883      C1897   1.441       .  A
C1883      C1891   1.390       .  A
C1884      C1892   1.388       .  A
C1884      C1895   1.427       .  A
C1885      C1893   1.386       .  A
C1885      C1896   1.428       .  A
C1886      C1887   1.377       .  A
C1886      H1898   1.078       .  S
C1887      H1899   1.080       .  S
C1888      C1889   1.368       .  A
C1888      H1900   1.079       .  S
C1889      H1901   1.081       .  S
C1890      C1891   1.381       .  A
C1890      H1902   1.082       .  S
C1891      H1903   1.072       .  S
C1892      C1893   1.389       .  A
C1892      H1904   1.082       .  S
C1893      H1905   1.081       .  S
N1908      C1913   1.361       .  A
N1908      C1912   1.363       .  A
N1908      H1940   1.033       .  S
N1909      C1916   1.356       .  A
N1909      C1917   1.356       .  A
N1910      C1915   1.348       .  A
N1910      C1914   1.344       .  A
N1910      H1941   1.042       .  S
N1911      C1918   1.356       .  A
N1911      C1919   1.360       .  A
C1912      C1920   1.386       .  A
C1912      C1928   1.433       .  A
C1913      C1929   1.432       .  A
C1913      C1921   1.386       .  A
C1914      C1922   1.382       .  A
C1914      C1931   1.389       .  A
C1915      C1930   1.404       .  A
C1915      C1923   1.391       .  A
C1916      C1928   1.428       .  A
C1916      C1924   1.388       .  A
C1917      C1931   1.423       .  A
C1917      C1925   1.385       .  A
C1918      C1926   1.386       .  A
C1918      C1929   1.427       .  A
C1919      C1927   1.389       .  A
C1919      C1930   1.433       .  A
C1920      C1921   1.374       .  A
C1920      H1932   1.078       .  S
C1921      H1933   1.078       .  S
C1922      C1923   1.362       .  A
C1922      H1934   1.083       .  S
C1923      H1935   1.077       .  S
C1924      C1925   1.387       .  A
C1924      H1936   1.082       .  S
C1925      H1937   1.082       .  S
C1926      C1927   1.382       .  A
C1926      H1938   1.082       .  S
C1927      H1939   1.080       .  S
O1942      C1958   1.277       .  A
O1942     Zn1948   1.976       .  S
C1943      O1959   1.271       .  A
C1943      O1956   1.277       .  A
O1944      C1957   1.288       .  A
O1944     Cd1951   2.170       .  S
O1945      C1963   1.254       .  A
O1945     Cd1954   1.982       .  S
O1946      C1960   1.278       .  A
O1946     Cd1950   2.011       .  S
O1947      C1958   1.264       .  A
O1947     Cd1950   2.046   1_455  S
Zn1948     O1959   2.026   1_455  S
Zn1948     O1961   1.909       .  S
Zn1948     O1953   1.852   1_455  S
O1949      C1960   1.268       .  A
O1949     Cd1954   2.059       .  S
Cd1950     O1952   1.960   1_655  S
Cd1950     O1953   1.906       .  S
Cd1951     O1955   2.180       .  S
Cd1951     O1964   2.163   1_455  S
Cd1951     O1953   1.953   1_455  S
O1952      C1962   1.250       .  A
O1953     Cd1954   1.912       .  S
Cd1954     O1956   2.030       .  S
O1955      C1962   1.292       .  A
C1957      O1961   1.249       .  A
C1957      C2114   1.507       .  S
C1963      O1964   1.286       .  A
C1965      C2111   1.524   1_554  S
C1965      N1966   1.371       .  A
C1965      N1970   1.375       .  A
N1966      C1967   1.369   1_455  A
C1967      C2179   1.515       .  S
C1967      N1968   1.366   1_655  A
N1968      C1969   1.366       .  A
C1969      C1991   1.519       .  S
C1969      N1970   1.374       .  A
N1971      C1976   1.369       .  A
N1971      C1975   1.365       .  A
N1971      H2003   1.036       .  S
N1972      C1979   1.356       .  A
N1972      C1980   1.361       .  A
N1973      C1978   1.338       .  A
N1973      C1977   1.341       .  A
N1973      H2004   1.044       .  S
N1974      C1981   1.355       .  A
N1974      C1982   1.359       .  A
C1975      C1983   1.386       .  A
C1975      C1991   1.442       .  A
C1976      C1992   1.440       .  A
C1976      C1984   1.386       .  A
C1977      C1985   1.383       .  A
C1977      C1994   1.382       .  A
C1978      C1993   1.391       .  A
C1978      C1986   1.390       .  A
C1979      C1991   1.434       .  A
C1979      C1987   1.390       .  A
C1980      C1994   1.429       .  A
C1980      C1988   1.384       .  A
C1981      C1989   1.389       .  A
C1981      C1992   1.433       .  A
C1982      C1990   1.386       .  A
C1982      C1993   1.430       .  A
C1983      C1984   1.380       .  A
C1983      H1995   1.075       .  S
C1984      H1996   1.082       .  S
C1985      C1986   1.369       .  A
C1985      H1997   1.083       .  S
C1986      H1998   1.082       .  S
C1987      C1988   1.390       .  A
C1987      H1999   1.082       .  S
C1988      H2000   1.082       .  S
C1989      C1990   1.390       .  A
C1989      H2001   1.082       .  S
C1990      H2002   1.080       .  S
C1992      C2011   1.521       .  S
C2005      C2038   1.480       .  S
C2005      N2006   1.360       .  A
C2005      N2010   1.356       .  A
N2006      C2007   1.359       .  A
C2007      C2146   1.491   1_545  S
C2007      N2008   1.365       .  A
N2008      C2009   1.364   1_455  A
C2009      C2180   1.488       .  S
C2009      N2010   1.357   1_655  A
C2011      N2012   1.365       .  A
C2011      N2016   1.373       .  A
N2012      C2013   1.368       .  A
C2013      C2078   1.513       .  S
C2013      N2014   1.370       .  A
N2014      C2015   1.371       .  A
C2015      C2037   1.523       .  S
C2015      N2016   1.374       .  A
N2017      C2022   1.355       .  A
N2017      C2021   1.362       .  A
N2017      H2049   1.037       .  S
N2018      C2025   1.363       .  A
N2018      C2026   1.358       .  A
N2019      C2024   1.344       .  A
N2019      C2023   1.337       .  A
N2019      H2050   1.043       .  S
N2020      C2027   1.350       .  A
N2020      C2028   1.357       .  A
C2021      C2029   1.387       .  A
C2021      C2037   1.427       .  A
C2022      C2038   1.425       .  A
C2022      C2030   1.389       .  A
C2023      C2031   1.385       .  A
C2023      C2040   1.379       .  A
C2024      C2039   1.390       .  A
C2024      C2032   1.386       .  A
C2025      C2037   1.435       .  A
C2025      C2033   1.385       .  A
C2026      C2040   1.434       .  A
C2026      C2034   1.386       .  A
C2027      C2035   1.386       .  A
C2027      C2038   1.416       .  A
C2028      C2036   1.389       .  A
C2028      C2039   1.428       .  A
C2029      C2030   1.377       .  A
C2029      H2041   1.081       .  S
C2030      H2042   1.081       .  S
C2031      C2032   1.363       .  A
C2031      H2043   1.082       .  S
C2032      H2044   1.080       .  S
C2033      C2034   1.389       .  A
C2033      H2045   1.082       .  S
C2034      H2046   1.080       .  S
C2035      C2036   1.377       .  A
C2035      H2047   1.082   1_455  S
C2036      H2048   1.081   1_455  S
C2051      C2077   1.508       .  S
C2051      N2052   1.363       .  A
C2051      N2056   1.373       .  A
N2052      C2053   1.362       .  A
C2053      C2112   1.505   1_554  S
C2053      N2054   1.366       .  A
N2054      C2055   1.367       .  A
C2055      C2145   1.516   1_545  S
C2055      N2056   1.373       .  A
N2057      C2062   1.364       .  A
N2057      C2061   1.362       .  A
N2057      H2089   1.039       .  S
N2058      C2065   1.355       .  A
N2058      C2066   1.360       .  A
N2059      C2064   1.337       .  A
N2059      C2063   1.339       .  A
N2059      H2090   1.044       .  S
N2060      C2067   1.354       .  A
N2060      C2068   1.361       .  A
C2061      C2069   1.387       .  A
C2061      C2077   1.431       .  A
C2062      C2078   1.436       .  A
C2062      C2070   1.390       .  A
C2063      C2071   1.384       .  A
C2063      C2080   1.380       .  A
C2064      C2079   1.391       .  A
C2064      C2072   1.389       .  A
C2065      C2077   1.429       .  A
C2065      C2073   1.389       .  A
C2066      C2080   1.429       .  A
C2066      C2074   1.385       .  A
C2067      C2075   1.388       .  A
C2067      C2078   1.431       .  A
C2068      C2076   1.387       .  A
C2068      C2079   1.433       .  A
C2069      C2070   1.380       .  A
C2069      H2081   1.083       .  S
C2070      H2082   1.081       .  S
C2071      C2072   1.374       .  A
C2071      H2083   1.083       .  S
C2072      H2084   1.081       .  S
C2073      C2074   1.391       .  A
C2073      H2085   1.082       .  S
C2074      H2086   1.082       .  S
C2075      C2076   1.393       .  A
C2075      H2087   1.082       .  S
C2076      H2088   1.082       .  S
N2091      C2096   1.356       .  A
N2091      C2095   1.358       .  A
N2091      H2123   1.040       .  S
N2092      C2099   1.369       .  A
N2092      C2100   1.365       .  A
N2093      C2098   1.347       .  A
N2093      C2097   1.340       .  A
N2093      H2124   1.044       .  S
N2094      C2101   1.360       .  A
N2094      C2102   1.360       .  A
C2095      C2103   1.386   1_556  A
C2095      C2111   1.421       .  A
C2096      C2112   1.422       .  A
C2096      C2104   1.385   1_556  A
C2097      C2105   1.391       .  A
C2097      C2114   1.398       .  A
C2098      C2113   1.392       .  A
C2098      C2106   1.382       .  A
C2099      C2111   1.433       .  A
C2099      C2107   1.377       .  A
C2100      C2114   1.456       .  A
C2100      C2108   1.394       .  A
C2101      C2109   1.382       .  A
C2101      C2112   1.421       .  A
C2102      C2110   1.392       .  A
C2102      C2113   1.444       .  A
C2103      C2104   1.379       .  A
C2103      H2115   1.081       .  S
C2104      H2116   1.075       .  S
C2105      C2106   1.376       .  A
C2105      H2117   1.080       .  S
C2106      H2118   1.082       .  S
C2107      C2108   1.382       .  A
C2107      H2119   1.082       .  S
C2108      H2120   1.070       .  S
C2109      C2110   1.376       .  A
C2109      H2121   1.082       .  S
C2110      H2122   1.079       .  S
N2125      C2130   1.356       .  A
N2125      C2129   1.363       .  A
N2125      H2157   1.033       .  S
N2126      C2133   1.358       .  A
N2126      C2134   1.355       .  A
N2127      C2132   1.339       .  A
N2127      C2131   1.333       .  A
N2127      H2158   1.044       .  S
N2128      C2135   1.353       .  A
N2128      C2136   1.361       .  A
C2129      C2137   1.386   1_565  A
C2129      C2145   1.432       .  A
C2130      C2146   1.428       .  A
C2130      C2138   1.388   1_565  A
C2131      C2139   1.386       .  A
C2131      C2148   1.379       .  A
C2132      C2147   1.383       .  A
C2132      C2140   1.384       .  A
C2133      C2145   1.432       .  A
C2133      C2141   1.387       .  A
C2134      C2148   1.431       .  A
C2134      C2142   1.386       .  A
C2135      C2143   1.385       .  A
C2135      C2146   1.423       .  A
C2136      C2144   1.388       .  A
C2136      C2147   1.435       .  A
C2137      C2138   1.376       .  A
C2137      H2149   1.080       .  S
C2138      H2150   1.080       .  S
C2139      C2140   1.368       .  A
C2139      H2151   1.081       .  S
C2140      H2152   1.079       .  S
C2141      C2142   1.390       .  A
C2141      H2153   1.082       .  S
C2142      H2154   1.079       .  S
C2143      C2144   1.383       .  A
C2143      H2155   1.082       .  S
C2144      H2156   1.079       .  S
N2159      C2164   1.351       .  A
N2159      C2163   1.356       .  A
N2159      H2191   1.032       .  S
N2160      C2167   1.368       .  A
N2160      C2168   1.360       .  A
N2161      C2166   1.351       .  A
N2161      C2165   1.343       .  A
N2161      H2192   1.040       .  S
N2162      C2169   1.360       .  A
N2162      C2170   1.360       .  A
C2163      C2171   1.384   1_655  A
C2163      C2179   1.419       .  A
C2164      C2180   1.416       .  A
C2164      C2172   1.387   1_655  A
C2165      C2173   1.391       .  A
C2165      C2182   1.405       .  A
C2166      C2181   1.399       .  A
C2166      C2174   1.382       .  A
C2167      C2179   1.426       .  A
C2167      C2175   1.372       .  A
C2168      C2182   1.451       .  A
C2168      C2176   1.391       .  A
C2169      C2177   1.375       .  A
C2169      C2180   1.419       .  A
C2170      C2178   1.384       .  A
C2170      C2181   1.441       .  A
C2171      C2172   1.370       .  A
C2171      H2183   1.075       .  S
C2172      H2184   1.081       .  S
C2173      C2174   1.373       .  A
C2173      H2185   1.080       .  S
C2174      H2186   1.081       .  S
C2175      C2176   1.372       .  A
C2175      H2187   1.082       .  S
C2176      H2188   1.061       .  S
C2177      C2178   1.364       .  A
C2177      H2189   1.082       .  S
C2178      H2190   1.057       .  S
