geometry optimzed in LAMMPS
_audit_creation_date              2020-11-30 
_audit_creation_method            'lammps2cif' 
_symmetry_space_group_name_H-M    'P1' 
_symmetry_Int_Tables_number       1 
_symmetry_cell_setting            triclinic 
loop_ 
_symmetry_equiv_pos_as_xyz 
  x,y,z 
_cell_length_a                    51.7230741 
_cell_length_b                    51.882811270534035 
_cell_length_c                    25.81188545763621 
_cell_angle_alpha                 89.14022816721265 
_cell_angle_beta                  90.48330341439213 
_cell_angle_gamma                 121.28018025690105 
loop_ 
_atom_site_label 
_atom_site_type_symbol 
_atom_site_fract_x 
_atom_site_fract_y 
_atom_site_fract_z 
_atom_site_charge 
O1          O  0.89138436  0.17382973  0.08759954    -0.73000
O2          O  0.83865852  0.11686503  0.20126905    -0.74000
O3          O  0.83782897  0.11692754  0.08890007    -0.62600
O4          O  0.89216473  0.17383629  0.20032814    -0.71000
O5          O  0.86525481  0.19607343  0.19903476    -0.70500
O6          O  0.81051173  0.13871147  0.09015360    -0.61800
O7          O  0.81143862  0.13879140  0.20028131    -0.74300
O8          O  0.86439516  0.19598527  0.08862889    -0.73100
Cu9        Cu  0.86602120  0.14459629  0.14452496     1.04600
Cu10       Cu  0.83702329  0.16815330  0.14452442     1.04300
C11         C  0.88534122  0.19310847  0.06912564     0.93200
C12         C  0.81728188  0.11955034  0.21945670     0.92400
C13         C  0.81610307  0.11951916  0.07121654     0.84500
C14         C  0.88645824  0.19320218  0.21828575     0.90800
C15         C  0.58953520  0.79462017  0.35603238     0.80200
N16         N  0.59481277  0.78498625  0.31068850    -0.78100
C17         C  0.60615745  0.76655942  0.31122504     0.82600
N18         N  0.61155714  0.75719206  0.35703694    -0.78100
C19         C  0.61278509  0.77023131  0.06770580     0.82700
N20         N  0.60071921  0.78804622  0.06547549    -0.79800
C21         C  0.37153050  0.81107038  0.36323195     0.80200
N22         N  0.35687352  0.79838205  0.07597275    -0.78100
C23         C  0.32613019  0.78065253  0.07677449     0.82600
N24         N  0.31042408  0.77288414  0.36482570    -0.78100
C25         C  0.32517329  0.78162632  0.31886802     0.82700
N26         N  0.35567564  0.80027677  0.31828215    -0.79800
C27         C  0.54302833  0.09702657  0.30528979     0.80200
N28         N  0.53908068  0.10809707  0.25950631    -0.78100
C29         C  0.52941200  0.12795747  0.25942429     0.82600
N30         N  0.52404152  0.13699763  0.30478749    -0.78100
C31         C  0.52411415  0.12468273  0.01741569     0.82700
N32         N  0.53364526  0.10476346  0.01828891    -0.79800
C33         C  0.75552953  0.07356498  0.31227371     0.80200
N34         N  0.76883003  0.08493470  0.02533252    -0.78100
C35         C  0.79949205  0.10300128  0.02486407     0.82600
N36         N  0.81654182  0.11202020  0.31207115    -0.78100
C37         C  0.80139803  0.10308083  0.26653698     0.82700
N38         N  0.77086674  0.08428953  0.26672424    -0.79800
C39         C  0.50277358  0.88364735  0.35228507    -0.10900
C40         C  0.51546807  0.86571586  0.35935818    -0.04700
C41         C  0.54669088  0.87784862  0.35561404    -0.10900
C42         C  0.56621677  0.90921658  0.34676782     0.10100
C43         C  0.55378375  0.92772878  0.33892247    -0.02700
C44         C  0.52191797  0.91486222  0.34099093     0.09900
C45         C  0.51012118  0.93350103  0.33137027    -0.12700
C46         C  0.52919558  0.96425144  0.32090655    -0.12700
C47         C  0.56086051  0.97766139  0.32032147     0.09900
C48         C  0.57327024  0.95913881  0.32862851    -0.02700
C49         C  0.59786324  0.92254442  0.34586522    -0.12800
C50         C  0.61691558  0.95326812  0.33590224    -0.12800
C51         C  0.60513026  0.97197315  0.32698556     0.10100
C52         C  0.62434623  0.00319015  0.31639123    -0.10900
C53         C  0.61173867  0.02113531  0.30836244    -0.04700
C54         C  0.58046391  0.00906736  0.31125196    -0.10900
H55         H  0.48595646  0.92440635  0.33181832     0.07300
H56         H  0.51883944  0.97744691  0.31317971     0.07300
H57         H  0.60826996  0.90936466  0.35324656     0.07500
H58         H  0.64105526  0.96224782  0.33522997     0.07500
H59         H  0.50065078  0.84165788  0.36601180     0.04000
H60         H  0.62665943  0.04517432  0.30167021     0.04000
O61         O  0.22862869  0.35474913  0.24352826    -0.73000
O62         O  0.28375976  0.35613080  0.13209854    -0.74000
O63         O  0.28378742  0.35621989  0.24352269    -0.62600
O64         O  0.22841925  0.35433974  0.13118446    -0.71000
O65         O  0.25351485  0.40445358  0.12999211    -0.70500
O66         O  0.30845922  0.40633181  0.24226457    -0.61800
O67         O  0.30913744  0.40623912  0.13208573    -0.74300
O68         O  0.25307422  0.40480821  0.24010100    -0.73100
Cu69       Cu  0.25522245  0.35355437  0.18762653     1.04600
Cu70       Cu  0.28188800  0.40715257  0.18605512     1.04300
C71         C  0.23289546  0.37975634  0.26022491     0.93200
C72         C  0.30468840  0.38149768  0.11395784     0.92400
C73         C  0.30420297  0.38160669  0.26146004     0.84500
C74         C  0.23300765  0.37918259  0.11183676     0.90800
O75         O  0.31513591  0.74512962  0.14414052    -0.73000
O76         O  0.26067863  0.68910083  0.25569833    -0.74000
O77         O  0.26066175  0.68766733  0.14549594    -0.62600
O78         O  0.31466040  0.74582718  0.25426810    -0.71000
O79         O  0.28771386  0.76803547  0.25323049    -0.70500
O80         O  0.23421326  0.71035430  0.14192768    -0.61800
O81         O  0.23395524  0.71157826  0.25375515    -0.74300
O82         O  0.28832727  0.76745916  0.14083239    -0.73100
Cu83       Cu  0.28866881  0.71617055  0.19994404     1.04600
Cu84       Cu  0.26008650  0.74017089  0.19726717     1.04300
C85         C  0.30984302  0.76455573  0.12398122     0.93200
C86         C  0.23962345  0.69234112  0.27356260     0.92400
C87         C  0.23949987  0.69037245  0.12556264     0.84500
C88         C  0.30898335  0.76514516  0.27230000     0.90800
C89         C  0.18952402  0.39594448  0.01690906     0.80200
N90         N  0.19939810  0.39100547  0.06304047    -0.78100
C91         C  0.21742289  0.37913413  0.06430241     0.82600
N92         N  0.22636741  0.37303531  0.01935177    -0.78100
C93         C  0.21731156  0.38039454  0.30689093     0.82700
N94         N  0.20064810  0.39379188  0.30611013    -0.79800
C95         C  0.19522620  0.62837466  0.03185762     0.80200
N96         N  0.20492163  0.64605707  0.32148795    -0.78100
C97         C  0.22447207  0.67626300  0.32106942     0.82600
N98         N  0.23391803  0.68916940  0.03282883    -0.78100
C99         C  0.22456405  0.67370580  0.07824794     0.82700
N100        N  0.20550098  0.64312644  0.07794147    -0.79800
C101        C  0.92323646  0.25520570  0.97288116     0.80200
N102        N  0.91723259  0.24050735  0.26562869    -0.78100
C103        C  0.90162361  0.20984510  0.26542639     0.82600
N104        N  0.89165857  0.19390077  0.97642634    -0.78100
C105        C  0.89970181  0.20955689  0.02113796     0.82700
N106        N  0.91501942  0.24015739  0.01927277    -0.79800
C107        C  0.90767485  0.47731896  0.97456213     0.80200
N108        N  0.89691731  0.48148640  0.01986014    -0.78100
C109        C  0.87711682  0.49125672  0.01911497     0.82600
N110        N  0.86769959  0.49642681  0.97334011    -0.78100
C111        C  0.87654025  0.49038298  0.26237182     0.82700
N112        N  0.89656190  0.48079203  0.26385343    -0.79800
C113        C  0.11591442  0.49790808  0.02082645    -0.10900
C114        C  0.13121567  0.48217132  0.02437802    -0.04700
C115        C  0.11643596  0.45114283  0.01526040    -0.10900
C116        C  0.08517145  0.43493039  0.00361110     0.10100
C117        C  0.06914117  0.45030631  0.00039380    -0.02700
C118        C  0.08450534  0.48189017  0.00883710     0.09900
C119        C  0.06792615  0.49644773  0.00580185    -0.12700
C120        C  0.03701159  0.48043543  0.99446085    -0.12700
C121        C  0.02139022  0.44917820  0.98598089     0.09900
C122        C  0.03762023  0.43398010  0.98891516    -0.02700
C123        C  0.06948754  0.40361984  0.99565885    -0.12800
C124        C  0.03864105  0.38764215  0.98505009    -0.12800
C125        C  0.02224197  0.40231665  0.98170807     0.10100
C126        C  0.99070974  0.38598280  0.97239725    -0.10900
C127        C  0.97504761  0.40125445  0.96921012    -0.04700
C128        C  0.98983618  0.43251454  0.97580521    -0.10900
H129        H  0.07866257  0.52037726  0.01277303     0.07300
H130        H  0.02536203  0.49274954  0.99280933     0.07300
H131        H  0.08085707  0.39105948  0.99818115     0.07500
H132        H  0.02771786  0.36354308  0.97961509     0.07500
H133        H  0.15529848  0.49447416  0.03247890     0.04000
H134        H  0.95076522  0.38846684  0.96308284     0.04000
O135        O  0.54940733  0.16406743  0.19130228    -0.73000
O136        O  0.53846523  0.21186715  0.07883601    -0.74000
O137        O  0.54125381  0.21400392  0.18892440    -0.62600
O138        O  0.54674756  0.16225773  0.08089683    -0.71000
O139        O  0.49686466  0.13113733  0.08379382    -0.70500
O140        O  0.49150417  0.18245589  0.19339661    -0.61800
O141        O  0.48862583  0.18050735  0.08165023    -0.74300
O142        O  0.49956506  0.13287997  0.19484212    -0.73100
Cu143      Cu  0.54568804  0.18912606  0.13485168     1.04600
Cu144      Cu  0.49237307  0.15565211  0.13856165     1.04300
C145        C  0.52608403  0.14148260  0.21172987     0.93200
C146        C  0.51201721  0.20312304  0.06145487     0.92400
C147        C  0.51568786  0.20575459  0.20942747     0.84500
C148        C  0.52261077  0.13924432  0.06417819     0.90800
O149        O  0.82411918  0.53037923  0.08275526    -0.73000
O150        O  0.87231654  0.51965401  0.19550719    -0.74000
O151        O  0.87255576  0.52024858  0.08424976    -0.62600
O152        O  0.82372177  0.52978096  0.19513742    -0.71000
O153        O  0.79096395  0.48036369  0.19460781    -0.70500
O154        O  0.84002998  0.47074632  0.08496086    -0.61800
O155        O  0.83983816  0.47015412  0.19572239    -0.74300
O156        O  0.79136819  0.48093260  0.08451378    -0.73100
Cu157      Cu  0.84933105  0.52677665  0.13941857     1.04600
Cu158      Cu  0.81445658  0.47385888  0.13995104     1.04300
C159        C  0.80059149  0.50704984  0.06501589     0.93200
C160        C  0.86316737  0.49335166  0.21417984     0.92400
C161        C  0.86338527  0.49407343  0.06627271     0.84500
C162        C  0.80009169  0.50639813  0.21318856     0.90800
O163        O  0.63334258  0.70382610  0.24992442    -0.73000
O164        O  0.63685507  0.75942236  0.13601886    -0.74000
O165        O  0.63355745  0.75782503  0.24795483    -0.62600
O166        O  0.63681131  0.70536040  0.13814627    -0.71000
O167        O  0.58656860  0.67942347  0.13440333    -0.70500
O168        O  0.58334327  0.73204434  0.24311385    -0.61800
O169        O  0.58659797  0.73379639  0.13298807    -0.74300
O170        O  0.58314735  0.67764148  0.24447057    -0.73100
Cu171      Cu  0.63693969  0.73254823  0.19314834     1.04600
Cu172      Cu  0.58319977  0.70485243  0.18855489     1.04300
C173        C  0.60758521  0.68265889  0.26610601     0.93200
C174        C  0.61216200  0.75460952  0.11562168     0.92400
C175        C  0.60787628  0.75233850  0.26405857     0.84500
C176        C  0.61213369  0.68474962  0.11802563     0.90800
C177        C  0.36612784  0.39639374  0.02229815     0.80200
N178        N  0.34924304  0.38952076  0.30896713    -0.78100
C179        C  0.32002653  0.38248836  0.30902888     0.82600
N180        N  0.30641726  0.37802657  0.02135361    -0.78100
C181        C  0.32092963  0.38246179  0.06714549     0.82700
N182        N  0.35091296  0.39200246  0.06775549    -0.79800
C183        C  0.58758695  0.62025998  0.35939303     0.80200
N184        N  0.60125899  0.63895610  0.07293131    -0.78100
C185        C  0.61287776  0.66916648  0.07194455     0.82600
N186        N  0.61138743  0.68085177  0.35918972    -0.78100
C187        C  0.60560640  0.66620972  0.31371246     0.82700
N188        N  0.59336811  0.63591959  0.31382276    -0.79800
C189        C  0.52647994  0.26430930  0.30272690     0.80200
N190        N  0.51638493  0.24643692  0.01408654    -0.78100
C191        C  0.50918050  0.21733654  0.01428685     0.82600
N192        N  0.51064369  0.20551240  0.30204245    -0.78100
C193        C  0.51490967  0.22056573  0.25662974     0.82700
N194        N  0.52326862  0.25013141  0.25687437    -0.79800
C195        C  0.74023780  0.49451615  0.97299086     0.80200
N196        N  0.75543758  0.49917559  0.26035653    -0.76900
C197        C  0.78540841  0.50857782  0.25994763     0.82600
N198        N  0.80020759  0.51379019  0.97234440    -0.78100
C199        C  0.78572440  0.50921030  0.01809372     0.82700
N200        N  0.75570862  0.49920752  0.01829876    -0.79800
C201        C  0.49321705  0.44154340  0.35145407    -0.10900
C202        C  0.50749796  0.47281297  0.35703557    -0.04700
C203        C  0.53883845  0.49161647  0.35274326    -0.10900
C204        C  0.55693921  0.47907416  0.34364865     0.10100
C205        C  0.54297924  0.44745305  0.33794570    -0.02700
C206        C  0.51097878  0.42854165  0.34172361     0.09900
C207        C  0.49777664  0.39725559  0.33631923    -0.12700
C208        C  0.51555697  0.38478446  0.32692263    -0.12700
C209        C  0.54721826  0.40314696  0.32263977     0.09900
C210        C  0.56108981  0.43477280  0.32822661    -0.02700
C211        C  0.58864203  0.49737163  0.34032929    -0.12800
C212        C  0.60637003  0.48493082  0.33091795    -0.12800
C213        C  0.59307324  0.45373468  0.32446801     0.10100
C214        C  0.61088959  0.44091716  0.31447702    -0.10900
C215        C  0.59681819  0.40974864  0.30852332    -0.04700
C216        C  0.56545677  0.39077004  0.31288304    -0.10900
H217        H  0.47354577  0.38212513  0.33950560     0.07300
H218        H  0.50424659  0.36056472  0.32287321     0.07300
H219        H  0.60007232  0.52154838  0.34512825     0.07500
H220        H  0.63064790  0.50001683  0.32856331     0.07500
H221        H  0.49387165  0.48281866  0.36341035     0.04000
H222        H  0.61061707  0.39997919  0.30170102     0.04000
C223        C  0.69336609  0.48348780  0.02076424    -0.21300
C224        C  0.70700840  0.48249114  0.97438512    -0.09400
C225        C  0.69102702  0.48161901  0.26238186     0.29500
C226        C  0.65954734  0.46854545  0.26501949    -0.21300
C227        C  0.64441581  0.45878456  0.31265479    -0.09400
C228        C  0.66191905  0.46996025  0.02455832     0.29500
F229        F  0.64965868  0.47052635  0.07051825    -0.19900
H230        H  0.70701042  0.49426540  0.05470670     0.17900
H231        H  0.64681383  0.46527506  0.22967124     0.17900
F232        F  0.70468222  0.49055268  0.21540599    -0.19900
C233        C  0.53881591  0.31047152  0.35239900    -0.21300
C234        C  0.53506527  0.29651567  0.30416798    -0.09400
C235        C  0.53564151  0.31214635  0.92552112     0.29500
C236        C  0.54625695  0.34304694  0.92966545    -0.21300
C237        C  0.55303041  0.35796740  0.30978646    -0.09400
C238        C  0.54775231  0.34085052  0.35521040     0.29500
F239        F  0.55208536  0.35380142  0.40231505    -0.19900
H240        H  0.53525138  0.29802521  0.38832582     0.17900
H241        H  0.55332185  0.35711851  0.89505465     0.17900
F242        F  0.53416139  0.30077878  0.87785424    -0.19900
C243        C  0.57129177  0.57271998  0.31106776    -0.21300
C244        C  0.57509253  0.58716413  0.35875912    -0.09400
C245        C  0.57464213  0.57358260  0.07616985     0.29500
C246        C  0.56106433  0.54217423  0.07579696    -0.21300
C247        C  0.55169196  0.52450174  0.35496929    -0.09400
C248        C  0.55972993  0.54173970  0.30916162     0.29500
F249        F  0.55615931  0.52848712  0.26255197    -0.19900
H250        H  0.57727802  0.58535834  0.27491654     0.17900
H251        H  0.55391231  0.52957465  0.11200081     0.17900
F252        F  0.57845061  0.58717198  0.12248442    -0.19900
C253        C  0.44248407  0.41263798  0.30871987    -0.21300
C254        C  0.46194575  0.42894435  0.02470382    -0.09400
C255        C  0.44461931  0.41741923  0.07003001     0.29500
C256        C  0.41345271  0.40642150  0.06890123    -0.21300
C257        C  0.39901737  0.40680207  0.02254741    -0.09400
C258        C  0.41131771  0.40154927  0.30877034     0.29500
F259        F  0.39588896  0.39141345  0.26355689    -0.19900
H260        H  0.45353799  0.41360232  0.27265824     0.17900
H261        H  0.40071791  0.39799429  0.10458464     0.17900
F262        F  0.45800751  0.41761377  0.11558877    -0.19900
C263        C  0.94651373  0.46959428  0.93083573    -0.21300
C264        C  0.92965223  0.46682346  0.97544927    -0.09400
C265        C  0.94261976  0.46567101  0.36037875     0.29500
C266        C  0.96276044  0.45526545  0.36213463    -0.21300
C267        C  0.97078910  0.44621161  0.97602437    -0.09400
C268        C  0.96690793  0.45941190  0.93108652     0.29500
F269        F  0.98237276  0.46185955  0.88723771    -0.19900
H270        H  0.94387452  0.47957998  0.89557664     0.17900
H271        H  0.97218381  0.45397341  0.39904348     0.17900
F272        F  0.93609260  0.47425295  0.40542154    -0.19900
C273        C  0.94497159  0.30475486  0.01768072    -0.21300
C274        C  0.94027226  0.28882082  0.97143442    -0.09400
C275        C  0.95119659  0.30686587  0.26554178     0.29500
C276        C  0.96668549  0.33843557  0.26740885    -0.21300
C277        C  0.97294695  0.35259229  0.97146711    -0.09400
C278        C  0.96107165  0.33624556  0.01771097     0.29500
F279        F  0.96529653  0.35085733  0.06305472    -0.19900
H280        H  0.93617201  0.29288285  0.05416870     0.17900
H281        H  0.97261053  0.35142089  0.23160452     0.17900
F282        F  0.94415019  0.29364071  0.21841734    -0.19900
C283        C  0.16822457  0.57665676  0.07445716    -0.21300
C284        C  0.17362384  0.59497939  0.03015251    -0.09400
C285        C  0.15654137  0.58310468  0.32092090     0.29500
C286        C  0.13741754  0.55179779  0.31970092    -0.21300
C287        C  0.13424239  0.53137445  0.02559066    -0.09400
C288        C  0.14894156  0.54516863  0.07215421     0.29500
F289        F  0.14480300  0.52813215  0.11525172    -0.19900
H290        H  0.17940654  0.58660726  0.11072163     0.17900
H291        H  0.12591225  0.54124275  0.28392655     0.17900
F292        F  0.15931237  0.59916774  0.27714672    -0.19900
C293        C  0.14720107  0.43626173  0.30458121    -0.21300
C294        C  0.13464040  0.43653610  0.01586068    -0.09400
C295        C  0.14325073  0.42917275  0.06277631     0.29500
C296        C  0.16070712  0.41569030  0.06275733    -0.21300
C297        C  0.16995656  0.40927912  0.01589573    -0.09400
C298        C  0.16481763  0.42294718  0.30385217     0.29500
F299        F  0.17404114  0.41881267  0.25728849    -0.19900
H300        H  0.14129402  0.44274902  0.26834874     0.17900
H301        H  0.16709329  0.41043140  0.09967709     0.17900
F302        F  0.13457875  0.43484985  0.10857989    -0.19900
C303        C  0.67322099  0.02714212  0.26781944    -0.21300
C304        C  0.65784778  0.01840947  0.31527143    -0.09400
C305        C  0.67190269  0.03119944  0.02890839     0.29500
C306        C  0.70353611  0.04847663  0.02774879    -0.21300
C307        C  0.72189576  0.05340549  0.31266795    -0.09400
C308        C  0.70489108  0.04427186  0.26627132     0.29500
F309        F  0.71861537  0.05230549  0.21926283    -0.19900
H310        H  0.66057897  0.02110601  0.23184386     0.17900
H311        H  0.71552893  0.05754185  0.06379867     0.17900
F312        F  0.65730653  0.02649229  0.07471155    -0.19900
C313        C  0.55778271  0.06586335  0.02215192    -0.21300
C314        C  0.55244274  0.07429943  0.30576884    -0.09400
C315        C  0.56599503  0.06987301  0.26221715     0.29500
C316        C  0.57457427  0.04829786  0.26386321    -0.21300
C317        C  0.56954353  0.03051024  0.30847788    -0.09400
C318        C  0.56693931  0.04482198  0.02551264     0.29500
F319        F  0.57796093  0.04106875  0.07107703    -0.19900
H320        H  0.55955011  0.07841309  0.05649416     0.17900
H321        H  0.58534746  0.04555434  0.23033912     0.17900
F322        F  0.57170737  0.08681190  0.21844618    -0.19900
C323        C  0.42034704  0.83691738  0.31320213    -0.21300
C324        C  0.40522227  0.83154907  0.36102108    -0.09400
C325        C  0.42362868  0.83837219  0.07324198     0.29500
C326        C  0.45528720  0.85626241  0.06960524    -0.21300
C327        C  0.46923433  0.86818274  0.35450188    -0.09400
C328        C  0.45190615  0.85486387  0.30998723     0.29500
F329        F  0.46564000  0.85845172  0.26360092    -0.19900
H330        H  0.40782847  0.82665860  0.27805783     0.17900
H331        H  0.46873385  0.86336626  0.10470513     0.17900
F332        F  0.41086914  0.83084804  0.12104204    -0.19900
C333        C  0.57154026  0.85377446  0.31220035    -0.21300
C334        C  0.55782914  0.85666490  0.35655182    -0.09400
C335        C  0.57056361  0.85088113  0.06075271     0.29500
C336        C  0.58206027  0.83172652  0.06199246    -0.21300
C337        C  0.57826563  0.81571115  0.35565763    -0.09400
C338        C  0.58181756  0.83366671  0.31163779     0.29500
F339        F  0.59581036  0.83241066  0.26833718    -0.19900
H340        H  0.57438648  0.86730187  0.27790709     0.17900
H341        H  0.59004679  0.82800777  0.09862029     0.17900
F342        F  0.56952225  0.86400592  0.10513763    -0.19900
O343        O  0.89252523  0.17246529  0.42288353    -0.73000
O344        O  0.83779671  0.11542981  0.53590398    -0.74000
O345        O  0.83881281  0.11550596  0.42346899    -0.62600
O346        O  0.89182642  0.17257586  0.53548039    -0.71000
O347        O  0.86491531  0.19480478  0.53217542    -0.70500
O348        O  0.81176283  0.13761486  0.42262726    -0.61800
O349        O  0.81070557  0.13744335  0.53246443    -0.74300
O350        O  0.86559719  0.19468514  0.42232431    -0.73100
Cu351      Cu  0.86625173  0.14318298  0.47956886     1.04600
Cu352      Cu  0.83738115  0.16687233  0.47736225     1.04300
C353        C  0.88683855  0.19192222  0.40389992     0.93200
C354        C  0.81600250  0.11800273  0.55250732     0.92400
C355        C  0.81749986  0.11836255  0.40455881     0.84500
C356        C  0.88607530  0.19215733  0.55216926     0.90800
C357        C  0.59400174  0.79675454  0.68933985     0.80200
N358        N  0.59902832  0.78679565  0.64420051    -0.78100
C359        C  0.61182409  0.76966592  0.64454579     0.82600
N360        N  0.61868418  0.76154609  0.69029802    -0.78100
C361        C  0.60565255  0.76595128  0.40230955     0.82700
N362        N  0.59423559  0.78430938  0.40186823    -0.79800
C363        C  0.36950403  0.81258527  0.69650621     0.80200
N364        N  0.35642968  0.80131656  0.40939131    -0.78100
C365        C  0.32573351  0.78258014  0.41017283     0.82600
N366        N  0.30833829  0.77499288  0.69872051    -0.78100
C367        C  0.32283013  0.78435620  0.65264087     0.82700
N368        N  0.35332402  0.80270451  0.65175472    -0.79800
C369        C  0.53316892  0.09072444  0.64112150     0.80200
N370        N  0.53003477  0.10200861  0.59490747    -0.78100
C371        C  0.52086049  0.12226426  0.59379566     0.82600
N372        N  0.51538417  0.13167075  0.63864328    -0.78100
C373        C  0.52828952  0.12665489  0.35046218     0.82700
N374        N  0.53791947  0.10675152  0.35087291    -0.79800
C375        C  0.75264233  0.07294793  0.64401182     0.80200
N376        N  0.77105591  0.08345322  0.35775026    -0.78100
C377        C  0.80159071  0.10225003  0.35772232     0.82600
N378        N  0.81393375  0.10965858  0.64506280    -0.78100
C379        C  0.79913488  0.10138993  0.59913775     0.82700
N380        N  0.76840162  0.08347320  0.59866211    -0.79800
C381        C  0.50073066  0.88049595  0.68095629    -0.10900
C382        C  0.51385521  0.86271979  0.68359939    -0.04700
C383        C  0.54523152  0.87549683  0.67966245    -0.10900
C384        C  0.56421757  0.90713132  0.67221759     0.10100
C385        C  0.55130345  0.92549316  0.66951183    -0.02700
C386        C  0.51945377  0.91211608  0.67363711     0.09900
C387        C  0.50714397  0.93067691  0.67001891    -0.12700
C388        C  0.52565298  0.96174859  0.66268257    -0.12700
C389        C  0.55727898  0.97557954  0.65911168     0.09900
C390        C  0.57026913  0.95729928  0.66228359    -0.02700
C391        C  0.59571376  0.92082212  0.66636286    -0.12800
C392        C  0.61426516  0.95193605  0.65944466    -0.12800
C393        C  0.60213679  0.97069768  0.65789044     0.10100
C394        C  0.62091152  0.00241031  0.65083768    -0.10900
C395        C  0.60755656  0.01998164  0.64721141    -0.04700
C396        C  0.57620989  0.00716134  0.65158890    -0.10900
H397        H  0.48297746  0.92128692  0.67266445     0.07300
H398        H  0.51484967  0.97482815  0.65963189     0.07300
H399        H  0.60637310  0.90757309  0.66674792     0.07500
H400        H  0.63828978  0.96112698  0.65481620     0.07500
H401        H  0.49940022  0.83851890  0.68900908     0.04000
H402        H  0.62189285  0.04420543  0.64192397     0.04000
O403        O  0.22851193  0.35501505  0.57617217    -0.73000
O404        O  0.28463247  0.35785470  0.46608176    -0.74000
O405        O  0.28450196  0.35800339  0.57734153    -0.62600
O406        O  0.22893470  0.35530030  0.46377390    -0.71000
O407        O  0.25260557  0.40531929  0.46486537    -0.70500
O408        O  0.30922382  0.40808685  0.57491345    -0.61800
O409        O  0.30863835  0.40791997  0.46446310    -0.74300
O410        O  0.25287458  0.40508884  0.57512931    -0.73100
Cu411      Cu  0.25574925  0.35475931  0.52089181     1.04600
Cu412      Cu  0.28164650  0.40831130  0.51982341     1.04300
C413        C  0.23259953  0.37968132  0.59412495     0.93200
C414        C  0.30482243  0.38325953  0.44702944     0.92400
C415        C  0.30521692  0.38353080  0.59447727     0.84500
C416        C  0.23277705  0.38011378  0.44556353     0.90800
O417        O  0.31490103  0.74795440  0.47925924    -0.73000
O418        O  0.25920264  0.69094669  0.58912187    -0.74000
O419        O  0.26074787  0.69045269  0.47916864    -0.62600
O420        O  0.31273372  0.74826481  0.58928633    -0.71000
O421        O  0.28569511  0.77038157  0.58649978    -0.70500
O422        O  0.23356533  0.71239106  0.47540265    -0.61800
O423        O  0.23227406  0.71316915  0.58719242    -0.74300
O424        O  0.28749860  0.76958211  0.47395433    -0.73100
Cu425      Cu  0.28780672  0.71869061  0.53437087     1.04600
Cu426      Cu  0.25878471  0.74220303  0.53058698     1.04300
C427        C  0.30939850  0.76697250  0.45796615     0.93200
C428        C  0.23774798  0.69366108  0.60661751     0.92400
C429        C  0.23944635  0.69285613  0.45907700     0.84500
C430        C  0.30683550  0.76761371  0.60638497     0.90800
C431        C  0.19131199  0.39977316  0.35120000     0.80200
N432        N  0.20048939  0.39380546  0.39715841    -0.78100
C433        C  0.21716447  0.38043531  0.39816106     0.82600
N434        N  0.22549659  0.37386360  0.35296159    -0.78100
C435        C  0.21693987  0.37927350  0.64141645     0.82700
N436        N  0.19836933  0.39054270  0.64195730    -0.79800
C437        C  0.19438260  0.63060954  0.36710655     0.80200
N438        N  0.20386797  0.64613266  0.65315019    -0.78100
C439        C  0.22207862  0.67664715  0.65354184     0.82600
N440        N  0.23423560  0.69109292  0.36632296    -0.78100
C441        C  0.22466251  0.67608794  0.41209635     0.82700
N442        N  0.20501858  0.64568776  0.41269317    -0.79800
C443        C  0.92622412  0.25572778  0.31120315     0.80200
N444        N  0.91597519  0.23972664  0.59920570    -0.78100
C445        C  0.90078824  0.20905316  0.59913733     0.82600
N446        N  0.89409222  0.19436121  0.31106688    -0.78100
C447        C  0.90213168  0.20909152  0.35677875     0.82700
N448        N  0.91775491  0.23973258  0.35669232    -0.79800
C449        C  0.90720052  0.47715808  0.31044537     0.80200
N450        N  0.89683708  0.48245066  0.35504269    -0.78100
C451        C  0.87696089  0.49205717  0.35323017     0.82600
N452        N  0.86693766  0.49591054  0.30702050    -0.78100
C453        C  0.87832927  0.49310319  0.59528655     0.82700
N454        N  0.89796620  0.48301472  0.59627257    -0.79800
C455        C  0.11619031  0.50068373  0.35924430    -0.10900
C456        C  0.13240161  0.48586631  0.36066813    -0.04700
C457        C  0.11822310  0.45491587  0.35178649    -0.10900
C458        C  0.08671096  0.43787803  0.34239585     0.10100
C459        C  0.06980516  0.45239462  0.34142852    -0.02700
C460        C  0.08457237  0.48393401  0.34957659     0.09900
C461        C  0.06729322  0.49776842  0.34817574    -0.12700
C462        C  0.03625946  0.48110217  0.33816522    -0.12700
C463        C  0.02113788  0.44979960  0.33019834     0.09900
C464        C  0.03807385  0.43530698  0.33210076    -0.02700
C465        C  0.07167149  0.40663007  0.33426430    -0.12800
C466        C  0.04059311  0.38986792  0.32594109    -0.12800
C467        C  0.02333914  0.40369213  0.32495628     0.10100
C468        C  0.99169910  0.38663397  0.31697304    -0.10900
C469        C  0.97540791  0.40128888  0.31366613    -0.04700
C470        C  0.98959147  0.43255736  0.31998122    -0.10900
H471        H  0.07763151  0.52168638  0.35488759     0.07300
H472        H  0.02421212  0.49301376  0.33687145     0.07300
H473        H  0.08377063  0.39476048  0.33470115     0.07500
H474        H  0.03020294  0.36586413  0.32001142     0.07500
H475        H  0.15664718  0.49880550  0.36717215     0.04000
H476        H  0.95115890  0.38804364  0.30735621     0.04000
O477        O  0.54444426  0.16015718  0.52925711    -0.73000
O478        O  0.54049708  0.21200230  0.41624564    -0.74000
O479        O  0.53731196  0.21081815  0.52642825    -0.62600
O480        O  0.54792323  0.16174353  0.41865440    -0.71000
O481        O  0.49804565  0.13119330  0.41381490    -0.70500
O482        O  0.48747265  0.17982801  0.52331514    -0.61800
O483        O  0.49064766  0.18107478  0.41149882    -0.74300
O484        O  0.49455897  0.12942241  0.52512848    -0.73100
Cu485      Cu  0.54426024  0.18721512  0.47282654     1.04600
Cu486      Cu  0.49091828  0.15429660  0.46832170     1.04300
C487        C  0.52003173  0.13717761  0.54591270     0.93200
C488        C  0.51508691  0.20406029  0.39501604     0.92400
C489        C  0.51086887  0.20254503  0.54293031     0.84500
C490        C  0.52463759  0.13954601  0.39791598     0.90800
O491        O  0.82442152  0.53184622  0.41613524    -0.73000
O492        O  0.87346458  0.52211574  0.52854839    -0.74000
O493        O  0.87280718  0.52185193  0.41729022    -0.62600
O494        O  0.82454812  0.53190059  0.52877975    -0.71000
O495        O  0.79195114  0.48243805  0.52851480    -0.70500
O496        O  0.84039210  0.47230786  0.41940430    -0.61800
O497        O  0.84101969  0.47260919  0.52974205    -0.74300
O498        O  0.79190413  0.48234727  0.41855012    -0.73100
Cu499      Cu  0.84996432  0.52872933  0.47269119     1.04600
Cu500      Cu  0.81522981  0.47576486  0.47414318     1.04300
C501        C  0.80106042  0.50832387  0.39848534     0.93200
C502        C  0.86453233  0.49591401  0.54749164     0.92400
C503        C  0.86350610  0.49550350  0.39998600     0.84500
C504        C  0.80099926  0.50845994  0.54695499     0.90800
O505        O  0.63625730  0.70458814  0.57923169    -0.73000
O506        O  0.63291083  0.75694256  0.46667023    -0.74000
O507        O  0.63621133  0.75854502  0.57852186    -0.62600
O508        O  0.63262261  0.70289971  0.46769565    -0.71000
O509        O  0.58243234  0.67656262  0.47302929    -0.70500
O510        O  0.58594676  0.73290111  0.58100025    -0.61800
O511        O  0.58267364  0.73103398  0.47104684    -0.74300
O512        O  0.58599624  0.67864371  0.58294385    -0.73100
Cu513      Cu  0.63630103  0.73167632  0.52288490     1.04600
Cu514      Cu  0.58254306  0.70390152  0.52719937     1.04300
C515        C  0.61158923  0.68402529  0.59976388     0.93200
C516        C  0.60724275  0.75143702  0.44998585     0.92400
C517        C  0.61145618  0.75373518  0.59811698     0.84500
C518        C  0.60689634  0.68164215  0.45193219     0.90800
C519        C  0.36426359  0.39324458  0.35460355     0.80200
N520        N  0.35176985  0.39445907  0.64101354    -0.78100
C521        C  0.32176740  0.38476915  0.64155796     0.82600
N522        N  0.30598804  0.37979542  0.35440161    -0.78100
C523        C  0.32062432  0.38392473  0.39990912     0.82700
N524        N  0.34987033  0.39092653  0.40018472    -0.79800
C525        C  0.59667986  0.62345179  0.69330211     0.80200
N526        N  0.59276142  0.63518300  0.40494851    -0.78100
C527        C  0.60505567  0.66554905  0.40479499     0.82600
N528        N  0.61880520  0.68372069  0.69197688    -0.78100
C529        C  0.61238136  0.66867399  0.64684727     0.82700
N530        N  0.60097325  0.63853758  0.64753408    -0.79800
C531        C  0.51772378  0.25980904  0.63618944     0.80200
N532        N  0.52288962  0.24896502  0.34802748    -0.78100
C533        C  0.51463626  0.21954532  0.34769888     0.82600
N534        N  0.50283089  0.20123695  0.63504228    -0.78100
C535        C  0.50796331  0.21662640  0.58970445     0.82700
N536        N  0.51595898  0.24615113  0.59026553    -0.79800
C537        C  0.74097172  0.49612626  0.30611325     0.80200
N538        N  0.75574266  0.49942711  0.59355105    -0.76900
C539        C  0.78601988  0.51034103  0.59346900     0.82600
N540        N  0.80056349  0.51389824  0.30541240    -0.78100
C541        C  0.78629269  0.51011424  0.35115244     0.82700
N542        N  0.75646840  0.50077521  0.35135881    -0.79800
C543        C  0.49639383  0.44530031  0.68724162    -0.10900
C544        C  0.51214634  0.47667703  0.69217846    -0.04700
C545        C  0.54361652  0.49411909  0.68745438    -0.10900
C546        C  0.56023083  0.47991612  0.67853459     0.10100
C547        C  0.54478479  0.44807116  0.67444304    -0.02700
C548        C  0.51273120  0.43062978  0.67888991     0.09900
C549        C  0.49800360  0.39911296  0.67497517    -0.12700
C550        C  0.51433895  0.38499243  0.66619254    -0.12700
C551        C  0.54603420  0.40187837  0.66081469     0.09900
C552        C  0.56143605  0.43371885  0.66520889    -0.02700
C553        C  0.59190332  0.49678674  0.67364916    -0.12800
C554        C  0.60810196  0.48281833  0.66378332    -0.12800
C555        C  0.59344228  0.45131008  0.65992440     0.10100
C556        C  0.60990598  0.43697923  0.65009720    -0.10900
C557        C  0.59424654  0.40558221  0.64484763    -0.04700
C558        C  0.56275242  0.38786956  0.65040003    -0.10900
H559        H  0.47365840  0.38510668  0.67868228     0.07300
H560        H  0.50184569  0.36067215  0.66314710     0.07300
H561        H  0.60456347  0.52106846  0.67719196     0.07500
H562        H  0.63232724  0.49711314  0.65900456     0.07500
H563        H  0.49956853  0.48785139  0.69797270     0.04000
H564        H  0.60687949  0.39462763  0.63748884     0.04000
C565        C  0.69252641  0.47599107  0.35555712    -0.21300
C566        C  0.70790385  0.48484387  0.30770869    -0.09400
C567        C  0.68895928  0.46776316  0.59635530     0.29500
C568        C  0.65741591  0.45364735  0.59973553    -0.21300
C569        C  0.64353209  0.45383074  0.64609758    -0.09400
C570        C  0.66117136  0.46301332  0.35801201     0.29500
F571        F  0.64699469  0.45344071  0.40450115    -0.19900
H572        H  0.70458904  0.47818904  0.39128323     0.17900
H573        H  0.64369055  0.44220408  0.56618837     0.17900
F574        F  0.70119956  0.46639865  0.55093835    -0.19900
C575        C  0.53005604  0.30575070  0.68702174    -0.21300
C576        C  0.52708770  0.29231860  0.63844137    -0.09400
C577        C  0.53992937  0.31382708  0.25852854     0.29500
C578        C  0.54899820  0.34432554  0.26156342    -0.21300
C579        C  0.54846189  0.35469963  0.64617983    -0.09400
C580        C  0.54066592  0.33653912  0.69089739     0.29500
F581        F  0.54426382  0.34881224  0.73845495    -0.19900
H582        H  0.52475694  0.29258047  0.72251182     0.17900
H583        H  0.55331471  0.35748437  0.22623827     0.17900
F584        F  0.53639093  0.30162177  0.21096059    -0.19900
C585        C  0.58362657  0.57629448  0.64670947    -0.21300
C586        C  0.58395985  0.59037460  0.69314716    -0.09400
C587        C  0.56700281  0.56960177  0.40479492     0.29500
C588        C  0.55525495  0.53850655  0.40264554    -0.21300
C589        C  0.55816165  0.52731264  0.68958602    -0.09400
C590        C  0.57079716  0.54510398  0.64484360     0.29500
F591        F  0.57040984  0.53220809  0.59922912    -0.19900
H592        H  0.59318884  0.58940177  0.61150070     0.17900
H593        H  0.54899312  0.52529692  0.43822774     0.17900
F594        F  0.57027597  0.58222452  0.45190549    -0.19900
C595        C  0.44694044  0.42264843  0.64068948    -0.21300
C596        C  0.45961759  0.42401087  0.35410302    -0.09400
C597        C  0.44489256  0.42291709  0.40027758     0.29500
C598        C  0.41377146  0.41177513  0.40054069    -0.21300
C599        C  0.39665320  0.40180026  0.35459478    -0.09400
C600        C  0.41594088  0.41236094  0.63973275     0.29500
F601        F  0.40192341  0.40686927  0.59302449    -0.19900
H602        H  0.45887611  0.42636436  0.60445423     0.17900
H603        H  0.40335997  0.41210308  0.43654271     0.17900
F604        F  0.46093332  0.43383749  0.44475246    -0.19900
C605        C  0.93746480  0.45798434  0.26757368    -0.21300
C606        C  0.92940261  0.46693899  0.31290057    -0.09400
C607        C  0.94210302  0.46478759  0.69216351     0.29500
C608        C  0.96229169  0.45443325  0.69336185    -0.21300
C609        C  0.97028670  0.44599516  0.31695414    -0.09400
C610        C  0.95756002  0.44749970  0.26957617     0.29500
F611        F  0.96444040  0.43858538  0.22526790    -0.19900
H612        H  0.92790423  0.45866635  0.23046816     0.17900
H613        H  0.97061302  0.45158088  0.73035575     0.17900
F614        F  0.93404352  0.47116002  0.73792851    -0.19900
C615        C  0.95156905  0.30463295  0.35941547    -0.21300
C616        C  0.94324400  0.28942482  0.31176937    -0.09400
C617        C  0.95024020  0.30621343  0.59923872     0.29500
C618        C  0.96589921  0.33780924  0.60114631    -0.21300
C619        C  0.97476410  0.35322400  0.31503519    -0.09400
C620        C  0.96716876  0.33614217  0.36105808     0.29500
F621        F  0.97487145  0.35003215  0.40763761    -0.19900
H622        H  0.94601235  0.29217692  0.39572814     0.17900
H623        H  0.97308559  0.35083853  0.56537895     0.17900
F624        F  0.94463679  0.29304067  0.55215435    -0.19900
C625        C  0.16828021  0.57955975  0.41092684    -0.21300
C626        C  0.17262277  0.59744406  0.36650215    -0.09400
C627        C  0.15961200  0.58126393  0.65051181     0.29500
C628        C  0.14066459  0.54979247  0.64966928    -0.21300
C629        C  0.13376928  0.53403296  0.36356795    -0.09400
C630        C  0.14922873  0.54811020  0.40940579     0.29500
F631        F  0.14623130  0.53137181  0.45237500    -0.19900
H632        H  0.18024885  0.58980155  0.44651263     0.17900
H633        H  0.13065016  0.53886877  0.61329449     0.17900
F634        F  0.16424822  0.59679479  0.60535364    -0.19900
C635        C  0.13842704  0.42533455  0.64410311    -0.21300
C636        C  0.13715829  0.44114675  0.35159068    -0.09400
C637        C  0.14499405  0.43269892  0.39816909     0.29500
C638        C  0.16253636  0.41932949  0.39766622    -0.21300
C639        C  0.17271901  0.41418644  0.35062991    -0.09400
C640        C  0.15511337  0.41106543  0.64306838     0.29500
F641        F  0.15761125  0.39991593  0.59739326    -0.19900
H642        H  0.12837710  0.42749469  0.60855825     0.17900
H643        H  0.16802607  0.41290885  0.43434391     0.17900
F644        F  0.13537853  0.43712487  0.44410140    -0.19900
C645        C  0.66964920  0.03395572  0.60241457    -0.21300
C646        C  0.65460848  0.01835050  0.64788865    -0.09400
C647        C  0.67456391  0.02652179  0.36149627     0.29500
C648        C  0.70621397  0.04379528  0.36016404    -0.21300
C649        C  0.71886678  0.05336299  0.64414811    -0.09400
C650        C  0.70136133  0.05107820  0.60022664     0.29500
F651        F  0.71468736  0.06616546  0.55559222    -0.19900
H652        H  0.65670288  0.03316093  0.56861736     0.17900
H653        H  0.71837851  0.05014403  0.39658740     0.17900
F654        F  0.66020069  0.01854354  0.40795715    -0.19900
C655        C  0.54773701  0.05653037  0.35049497    -0.21300
C656        C  0.54341452  0.06859185  0.64288118    -0.09400
C657        C  0.55415025  0.06164578  0.59822409     0.29500
C658        C  0.56455684  0.04154454  0.60136474    -0.21300
C659        C  0.56416753  0.02766537  0.64860318    -0.09400
C660        C  0.55620114  0.03493156  0.35192134     0.29500
F661        F  0.55191852  0.01871797  0.39616572    -0.19900
H662        H  0.53740198  0.05927651  0.38461345     0.17900
H663        H  0.57302883  0.03680366  0.56679890     0.17900
F664        F  0.55516256  0.07454268  0.55156080    -0.19900
C665        C  0.41761792  0.83880116  0.64483713    -0.21300
C666        C  0.40325478  0.83182081  0.69364787    -0.09400
C667        C  0.42278976  0.84559754  0.40553803     0.29500
C668        C  0.45446615  0.86360697  0.40212612    -0.21300
C669        C  0.46725379  0.86501686  0.68519662    -0.09400
C670        C  0.44916419  0.85508692  0.64062982     0.29500
F671        F  0.46204876  0.86063842  0.59299402    -0.19900
H672        H  0.40447150  0.83116658  0.60949459     0.17900
H673        H  0.46759254  0.87347337  0.43694855     0.17900
F674        F  0.40957902  0.84179398  0.45248390    -0.19900
C675        C  0.55123836  0.83449163  0.64323486    -0.21300
C676        C  0.55729358  0.85497625  0.68302766    -0.09400
C677        C  0.55394838  0.83866230  0.40039401     0.29500
C678        C  0.56424268  0.81849402  0.39998193    -0.21300
C679        C  0.58045359  0.81604857  0.68792591    -0.09400
C680        C  0.56275851  0.81531980  0.64534386     0.29500
F681        F  0.55614953  0.79579444  0.60593942    -0.19900
H682        H  0.53776846  0.83358068  0.61015049     0.17900
H683        H  0.56108074  0.80493989  0.43435720     0.17900
F684        F  0.54051111  0.84083473  0.44369126    -0.19900
O685        O  0.88957504  0.17129759  0.75512783    -0.73000
O686        O  0.83631578  0.11433432  0.86856373    -0.74000
O687        O  0.83615964  0.11392385  0.75591160    -0.62600
O688        O  0.88951616  0.17152015  0.86713530    -0.71000
O689        O  0.86209372  0.19322702  0.86442149    -0.70500
O690        O  0.80864224  0.13551937  0.75564903    -0.61800
O691        O  0.80869815  0.13582579  0.86558384    -0.74300
O692        O  0.86225795  0.19311748  0.75485021    -0.73100
Cu693      Cu  0.86387029  0.14193559  0.81170144     1.04600
Cu694      Cu  0.83448271  0.16510025  0.81004595     1.04300
C695        C  0.88380416  0.19077754  0.73666982     0.93200
C696        C  0.81477742  0.11702440  0.88597416     0.92400
C697        C  0.81453315  0.11641103  0.73737781     0.84500
C698        C  0.88354379  0.19090668  0.88396924     0.90800
C699        C  0.59623731  0.79784041  0.01884682     0.80200
N700        N  0.60249611  0.78822304  0.97449850    -0.78100
C701        C  0.61457944  0.77044298  0.97668768     0.82600
N702        N  0.61952543  0.76144884  0.02327205    -0.78100
C703        C  0.61315712  0.77051118  0.73574552     0.82700
N704        N  0.60044893  0.78788931  0.73535164    -0.79800
C705        C  0.37191253  0.80853151  0.02994359     0.80200
N706        N  0.35468589  0.80221617  0.74275229    -0.78100
C707        C  0.32395878  0.78383941  0.74386664     0.82600
N708        N  0.31057253  0.77232629  0.03154798    -0.78100
C709        C  0.32521576  0.78139340  0.98557254     0.82700
N710        N  0.35584466  0.79905207  0.98491939    -0.79800
C711        C  0.53709809  0.09345384  0.97319246     0.80200
N712        N  0.53186452  0.10330017  0.92703412    -0.78100
C713        C  0.52234821  0.12336400  0.92653423     0.82600
N714        N  0.51857189  0.13382463  0.97166493    -0.78100
C715        C  0.51871917  0.12103855  0.68472484     0.82700
N716        N  0.52790502  0.10079934  0.68610956    -0.79800
C717        C  0.75312467  0.07416927  0.98014968     0.80200
N718        N  0.76795644  0.08226785  0.68980350    -0.78100
C719        C  0.79860948  0.10027029  0.69042314     0.82600
N720        N  0.81436094  0.11113412  0.97897007    -0.78100
C721        C  0.79903256  0.10138262  0.93368369     0.82700
N722        N  0.76842390  0.08334380  0.93437713    -0.79800
C723        C  0.50308161  0.88077175  0.01719070    -0.10900
C724        C  0.51662228  0.86339792  0.01872413    -0.04700
C725        C  0.54784033  0.87654800  0.01257392    -0.10900
C726        C  0.56641008  0.90811042  0.00499576     0.10100
C727        C  0.55310209  0.92611461  0.00316976    -0.02700
C728        C  0.52131655  0.91243691  0.00921903     0.09900
C729        C  0.50869408  0.93077735  0.00709554    -0.12700
C730        C  0.52684584  0.96189900  0.99885079    -0.12700
C731        C  0.55834948  0.97589425  0.99268270     0.09900
C732        C  0.57164010  0.95785723  0.99518974    -0.02700
C733        C  0.59792931  0.92210008  0.99917020    -0.12800
C734        C  0.61612702  0.95322890  0.99228224    -0.12800
C735        C  0.60348694  0.97153161  0.99027125     0.10100
C736        C  0.62187560  0.00321113  0.98390501    -0.10900
C737        C  0.60840839  0.02060436  0.98082192    -0.04700
C738        C  0.57704614  0.00749882  0.98471816    -0.10900
H739        H  0.48459355  0.92116081  0.01180653     0.07300
H740        H  0.51597796  0.97496734  0.99756704     0.07300
H741        H  0.60885657  0.90908578  0.00020742     0.07500
H742        H  0.64027447  0.96285370  0.98837086     0.07500
H743        H  0.50256921  0.83915646  0.02421152     0.04000
H744        H  0.62265061  0.04487122  0.97594384     0.04000
O745        O  0.22969768  0.35374052  0.90966449    -0.73000
O746        O  0.28577696  0.35703049  0.79826046    -0.74000
O747        O  0.28544401  0.35648933  0.91002442    -0.62600
O748        O  0.22973780  0.35388463  0.79764851    -0.71000
O749        O  0.25388528  0.40396034  0.79755840    -0.70500
O750        O  0.30955289  0.40657200  0.90917221    -0.61800
O751        O  0.31016438  0.40710279  0.79871489    -0.74300
O752        O  0.25354351  0.40378999  0.90734100    -0.73100
Cu753      Cu  0.25681470  0.35348102  0.85390447     1.04600
Cu754      Cu  0.28262907  0.40704881  0.85315892     1.04300
C755        C  0.23346030  0.37847196  0.92675321     0.93200
C756        C  0.30620406  0.38265411  0.78009933     0.92400
C757        C  0.30551775  0.38191841  0.92834535     0.84500
C758        C  0.23363219  0.37863879  0.77918855     0.90800
O759        O  0.31375613  0.74745342  0.80928136    -0.73000
O760        O  0.26074559  0.68928630  0.92042434    -0.74000
O761        O  0.25972765  0.68953130  0.81007803    -0.62600
O762        O  0.31437089  0.74661129  0.91918466    -0.71000
O763        O  0.28685925  0.76817042  0.92180048    -0.70500
O764        O  0.23266376  0.71158508  0.80984997    -0.61800
O765        O  0.23347124  0.71113364  0.92189327    -0.74300
O766        O  0.28643932  0.76923962  0.80934109    -0.73100
Cu767      Cu  0.28804879  0.71749155  0.86466806     1.04600
Cu768      Cu  0.25886242  0.74082574  0.86568957     1.04300
C769        C  0.30806988  0.76699007  0.79096587     0.93200
C770        C  0.23954759  0.69179026  0.93985234     0.92400
C771        C  0.23811378  0.69204636  0.79179971     0.84500
C772        C  0.30862015  0.76548399  0.93896120     0.90800
C773        C  0.18843567  0.39506952  0.68781676     0.80200
N774        N  0.19885269  0.38985265  0.73308088    -0.78100
C775        C  0.21738905  0.37857345  0.73257564     0.82600
N776        N  0.22633168  0.37342020  0.68676479    -0.78100
C777        C  0.21744107  0.37851252  0.97316784     0.82700
N778        N  0.19944801  0.39044298  0.97199215    -0.79800
C779        C  0.19405062  0.62995741  0.69839068     0.80200
N780        N  0.20569839  0.64442160  0.98666578    -0.78100
C781        C  0.22469589  0.67476703  0.98710615     0.82600
N782        N  0.23128428  0.69103086  0.69931159    -0.78100
C783        C  0.22259366  0.67547791  0.74472107     0.82700
N784        N  0.20432503  0.64481234  0.74436162    -0.79800
C785        C  0.92389496  0.25497130  0.64481897     0.80200
N786        N  0.91423909  0.23909936  0.92826202    -0.78100
C787        C  0.89886805  0.20846360  0.92998573     0.82600
N788        N  0.89263710  0.19361320  0.64468597    -0.78100
C789        C  0.89943810  0.20831328  0.69024123     0.82700
N790        N  0.91463372  0.23894615  0.69024117    -0.79800
C791        C  0.90830195  0.47868672  0.64265554     0.80200
N792        N  0.89786262  0.48365167  0.68753847    -0.78100
C793        C  0.87834643  0.49373674  0.68621044     0.82600
N794        N  0.86873657  0.49834910  0.64019472    -0.78100
C795        C  0.87775021  0.49206835  0.92812442     0.82700
N796        N  0.89764269  0.48233486  0.92850115    -0.79800
C797        C  0.11647809  0.49874269  0.69215896    -0.10900
C798        C  0.13162937  0.48286665  0.69695767    -0.04700
C799        C  0.11648179  0.45153264  0.69049492    -0.10900
C800        C  0.08497541  0.43521432  0.68078192     0.10100
C801        C  0.06912602  0.45071802  0.67612047    -0.02700
C802        C  0.08487000  0.48257031  0.68155468     0.09900
C803        C  0.06847737  0.49725866  0.67673061    -0.12700
C804        C  0.03741513  0.48112342  0.66639975    -0.12700
C805        C  0.02142046  0.44959480  0.66082294     0.09900
C806        C  0.03744281  0.43425989  0.66574335    -0.02700
C807        C  0.06889393  0.40364956  0.67600832    -0.12800
C808        C  0.03801126  0.38762291  0.66601122    -0.12800
C809        C  0.02181385  0.40241194  0.66073126     0.10100
C810        C  0.99033521  0.38604585  0.65076914    -0.10900
C811        C  0.97492348  0.40150138  0.64511121    -0.04700
C812        C  0.98985851  0.43291579  0.65031611    -0.10900
H813        H  0.07952921  0.52143189  0.68115288     0.07300
H814        H  0.02600533  0.49361370  0.66277724     0.07300
H815        H  0.07998143  0.39089638  0.68035893     0.07500
H816        H  0.02693487  0.36338874  0.66243239     0.07500
H817        H  0.15584666  0.49525312  0.70374044     0.04000
H818        H  0.95072927  0.38877580  0.63807513     0.04000
O819        O  0.54262025  0.15965280  0.85890580    -0.73000
O820        O  0.53321310  0.20835141  0.74656462    -0.74000
O821        O  0.53509152  0.21022628  0.85666448    -0.62600
O822        O  0.54071744  0.15832845  0.74872066    -0.71000
O823        O  0.49080767  0.12736721  0.75047434    -0.70500
O824        O  0.48524275  0.17927811  0.85965533    -0.61800
O825        O  0.48330074  0.17733811  0.74751880    -0.74300
O826        O  0.49272394  0.12886556  0.86178052    -0.73100
Cu827      Cu  0.53958810  0.18517813  0.80265796     1.04600
Cu828      Cu  0.48621513  0.15212018  0.80501485     1.04300
C829        C  0.51913692  0.13700252  0.87877688     0.93200
C830        C  0.50706979  0.19992549  0.72811170     0.92400
C831        C  0.50940623  0.20248552  0.87615838     0.84500
C832        C  0.51668964  0.13539643  0.73148015     0.90800
O833        O  0.82419426  0.53175753  0.74993197    -0.73000
O834        O  0.87294929  0.52158266  0.86230366    -0.74000
O835        O  0.87319312  0.52254862  0.75105831    -0.62600
O836        O  0.82360722  0.53064003  0.86238562    -0.71000
O837        O  0.79137085  0.48112382  0.86101801    -0.70500
O838        O  0.84121486  0.47292805  0.75160025    -0.61800
O839        O  0.84090918  0.47199550  0.86193581    -0.74300
O840        O  0.79203745  0.48218394  0.75097813    -0.73100
Cu841      Cu  0.84961601  0.52841891  0.80646055     1.04600
Cu842      Cu  0.81530895  0.47537886  0.80638202     1.04300
C843        C  0.80096739  0.50830682  0.73177691     0.93200
C844        C  0.86412618  0.49525150  0.88048755     0.92400
C845        C  0.86438517  0.49645557  0.73304625     0.84500
C846        C  0.80010437  0.50696231  0.88004025     0.90800
O847        O  0.64097272  0.70613958  0.91429889    -0.73000
O848        O  0.63986998  0.76027159  0.80057783    -0.74000
O849        O  0.64069496  0.76023061  0.91271441    -0.62600
O850        O  0.64036318  0.70608191  0.80202051    -0.71000
O851        O  0.59009056  0.67978025  0.80363339    -0.70500
O852        O  0.59040401  0.73392164  0.91237823    -0.61800
O853        O  0.58963644  0.73415013  0.80258717    -0.74300
O854        O  0.59070999  0.67974501  0.91360826    -0.73100
Cu855      Cu  0.64232603  0.73412544  0.85733619     1.04600
Cu856      Cu  0.58855310  0.70601030  0.85805543     1.04300
C857        C  0.61580368  0.68505766  0.93282447     0.93200
C858        C  0.61442832  0.75518772  0.78311477     0.92400
C859        C  0.61542738  0.75489320  0.93074599     0.84500
C860        C  0.61504859  0.68495364  0.78458889     0.90800
C861        C  0.36712412  0.39844274  0.68643415     0.80200
N862        N  0.35117739  0.39234555  0.97651061    -0.78100
C863        C  0.32129099  0.38284815  0.97609718     0.82600
N864        N  0.30728875  0.37971382  0.68729246    -0.78100
C865        C  0.32221272  0.38417215  0.73261488     0.82700
N866        N  0.35221817  0.39390383  0.73229778    -0.79800
C867        C  0.59717322  0.62374230  0.02813469     0.80200
N868        N  0.60252392  0.63873432  0.73860383    -0.78100
C869        C  0.61411028  0.66899981  0.73785981     0.82600
N870        N  0.61960490  0.68413538  0.02593755    -0.78100
C871        C  0.61509814  0.66932186  0.98087911     0.82700
N872        N  0.60339711  0.63902830  0.98197534    -0.79800
C873        C  0.51899962  0.26133441  0.96866519     0.80200
N874        N  0.51310785  0.24400443  0.68126811    -0.78100
C875        C  0.50524820  0.21469974  0.68080676     0.82600
N876        N  0.50528090  0.20312640  0.96886022    -0.78100
C877        C  0.50844029  0.21758930  0.92313771     0.82700
N878        N  0.51584110  0.24697012  0.92288816    -0.79800
C879        C  0.74067840  0.49493924  0.63908260     0.80200
N880        N  0.75496280  0.49831679  0.92724356    -0.76900
C881        C  0.78511246  0.50853108  0.92685763     0.82600
N882        N  0.80095738  0.51561748  0.63915155    -0.78100
C883        C  0.78614400  0.51040650  0.68475020     0.82700
N884        N  0.75597747  0.49967892  0.68457688    -0.79800
C885        C  0.49547429  0.44496915  0.02628946    -0.10900
C886        C  0.51100252  0.47626297  0.03271478    -0.04700
C887        C  0.54249727  0.49389411  0.02863766    -0.10900
C888        C  0.55932319  0.47996367  0.01941300     0.10100
C889        C  0.54407287  0.44826874  0.01326203    -0.02700
C890        C  0.51199121  0.43065300  0.01654788     0.09900
C891        C  0.49735153  0.39937737  0.00912060    -0.12700
C892        C  0.51384197  0.38565100  0.99853561    -0.12700
C893        C  0.54561860  0.40269324  0.99489667     0.09900
C894        C  0.56091651  0.43432204  0.00231299    -0.02700
C895        C  0.59101870  0.49708044  0.01533719    -0.12800
C896        C  0.60745905  0.48349688  0.00431362    -0.12800
C897        C  0.59298114  0.45213982  0.99800510     0.10100
C898        C  0.60961691  0.43820271  0.98625928    -0.10900
C899        C  0.59403147  0.40695695  0.97861256    -0.04700
C900        C  0.56249322  0.38903697  0.98316847    -0.10900
H901        H  0.47294823  0.38526069  0.01126679     0.07300
H902        H  0.50139992  0.36152797  0.99265899     0.07300
H903        H  0.60346382  0.52128716  0.02020971     0.07500
H904        H  0.63169665  0.49800777  0.00020273     0.07500
H905        H  0.49825238  0.48724360  0.03864582     0.04000
H906        H  0.60676923  0.39623915  0.97019879     0.04000
C907        C  0.69325980  0.48266961  0.68601830    -0.21300
C908        C  0.70732993  0.48206591  0.63993302    -0.09400
C909        C  0.68827171  0.46848778  0.93107248     0.29500
C910        C  0.65681031  0.45489991  0.93502407    -0.21300
C911        C  0.64328123  0.45522549  0.98174011    -0.09400
C912        C  0.66177329  0.46869757  0.68918221     0.29500
F913        F  0.64905985  0.46910062  0.73472801    -0.19900
H914        H  0.70661731  0.49361680  0.72013722     0.17900
H915        H  0.64282682  0.44358246  0.90164845     0.17900
F916        F  0.70003993  0.46678875  0.88536677    -0.19900
C917        C  0.52884081  0.30668634  0.01863430    -0.21300
C918        C  0.52751348  0.29362389  0.97035711    -0.09400
C919        C  0.53414886  0.31060653  0.59348048     0.29500
C920        C  0.54493167  0.34151403  0.59756854    -0.21300
C921        C  0.54835899  0.35589897  0.97816101    -0.09400
C922        C  0.53913293  0.33738472  0.02253616     0.29500
F923        F  0.54111742  0.34926735  0.06995689    -0.19900
H924        H  0.52249187  0.29328023  0.05396804     0.17900
H925        H  0.55100923  0.35534760  0.56273109     0.17900
F926        F  0.53123441  0.29895399  0.54559268    -0.19900
C927        C  0.57975140  0.57499103  0.98266712    -0.21300
C928        C  0.58389969  0.59045514  0.02927314    -0.09400
C929        C  0.57133082  0.57236550  0.73808080     0.29500
C930        C  0.55843940  0.54109737  0.73603394    -0.21300
C931        C  0.55688183  0.52709366  0.02912296    -0.09400
C932        C  0.56640826  0.54367313  0.98256482     0.29500
F933        F  0.56257444  0.52943022  0.93692912    -0.19900
H934        H  0.58667353  0.58707500  0.94599214     0.17900
H935        H  0.54852312  0.52753547  0.77071926     0.17900
F936        F  0.57067000  0.58468309  0.78369158    -0.19900
C937        C  0.44764023  0.42871577  0.97826431    -0.21300
C938        C  0.46281360  0.42943578  0.68767995    -0.09400
C939        C  0.44711826  0.42526441  0.73412110     0.29500
C940        C  0.41607386  0.41472033  0.73341539    -0.21300
C941        C  0.40001834  0.40851374  0.68628672    -0.09400
C942        C  0.41657735  0.41775976  0.97690559     0.29500
F943        F  0.40418060  0.41906704  0.93112705    -0.19900
H944        H  0.46083665  0.43798198  0.94317252     0.17900
H945        H  0.40478251  0.41205674  0.76997081     0.17900
F946        F  0.46204428  0.43219301  0.78009479    -0.19900
C947        C  0.93955644  0.46086567  0.59859466    -0.21300
C948        C  0.93025253  0.46806638  0.64455937    -0.09400
C949        C  0.93396596  0.45374081  0.02056582     0.29500
C950        C  0.95423671  0.44351847  0.02055571    -0.21300
C951        C  0.97107937  0.44695256  0.64756764    -0.09400
C952        C  0.95958311  0.45023899  0.60007338     0.29500
F953        F  0.96749882  0.44283529  0.55518511    -0.19900
H954        H  0.93103078  0.46304381  0.56136142     0.17900
H955        H  0.95666233  0.43292687  0.05523703     0.17900
F956        F  0.91797419  0.44985902  0.06441214    -0.19900
C957        C  0.94775563  0.30386164  0.69305163    -0.21300
C958        C  0.94080576  0.28869531  0.64540766    -0.09400
C959        C  0.95216923  0.30545723  0.92482957     0.29500
C960        C  0.96836217  0.33708403  0.92507464    -0.21300
C961        C  0.97267786  0.35257283  0.64878262    -0.09400
C962        C  0.96352672  0.33538977  0.69475718     0.29500
F963        F  0.97007599  0.34919874  0.74137543    -0.19900
H964        H  0.94107716  0.29135699  0.72934376     0.17900
H965        H  0.97756191  0.34952209  0.88914496     0.17900
F966        F  0.94863913  0.29138043  0.87912272    -0.19900
C967        C  0.16747674  0.57863328  0.74257679    -0.21300
C968        C  0.17345015  0.59629236  0.69715271    -0.09400
C969        C  0.15844062  0.58087204  0.98372817     0.29500
C970        C  0.13910556  0.54954747  0.98172369    -0.21300
C971        C  0.13499142  0.53236387  0.69488159    -0.09400
C972        C  0.14869688  0.54704416  0.74142623     0.29500
F973        F  0.14393594  0.53078450  0.78576818    -0.19900
H974        H  0.17766720  0.58920939  0.77905865     0.17900
H975        H  0.12825966  0.53930459  0.94536955     0.17900
F976        F  0.16216657  0.59718481  0.93985435    -0.19900
C977        C  0.14324335  0.42979138  0.96904694    -0.21300
C978        C  0.13448896  0.43664169  0.69047805    -0.09400
C979        C  0.14714508  0.43309137  0.73631471     0.29500
C980        C  0.16407572  0.41902521  0.73538178    -0.21300
C981        C  0.16875557  0.40824807  0.68867071    -0.09400
C982        C  0.16063068  0.41623672  0.96880525     0.29500
F983        F  0.16831266  0.41018734  0.92236831    -0.19900
H984        H  0.13649332  0.43514471  0.93254807     0.17900
H985        H  0.17385271  0.41696256  0.77130612     0.17900
F986        F  0.14288841  0.44298678  0.78199889    -0.19900
C987        C  0.67091905  0.02474292  0.93616386    -0.21300
C988        C  0.65539976  0.01936577  0.98307061    -0.09400
C989        C  0.67191060  0.02003960  0.69141473     0.29500
C990        C  0.70361233  0.03734681  0.68949788    -0.21300
C991        C  0.71942614  0.05453041  0.98071939    -0.09400
C992        C  0.70260635  0.04208823  0.93476339     0.29500
F993        F  0.71654580  0.04679553  0.88827590    -0.19900
H994        H  0.65840679  0.01585263  0.90045881     0.17900
H995        H  0.71623798  0.03841931  0.72391531     0.17900
F996        F  0.65810895  0.00562431  0.73626888    -0.19900
C997        C  0.54301232  0.05441999  0.69015428    -0.21300
C998        C  0.54694288  0.07099031  0.97517594    -0.09400
C999        C  0.54539371  0.05417854  0.93144871     0.29500
C1000       C  0.55433332  0.03287417  0.93512821    -0.21300
C1001       C  0.56510665  0.02804550  0.98209645    -0.09400
C1002       C  0.55325370  0.03419587  0.69303625     0.29500
F1003       F  0.55288599  0.02127871  0.73936494    -0.19900
H1004       H  0.53485995  0.05904171  0.72521562     0.17900
H1005       H  0.55327329  0.02040395  0.90107981     0.17900
F1006       F  0.53518056  0.05810726  0.88517221    -0.19900
C1007       C  0.42037245  0.83677508  0.97951479    -0.21300
C1008       C  0.40564798  0.82818438  0.02796523    -0.09400
C1009       C  0.42162358  0.84259954  0.73833930     0.29500
C1010       C  0.45330077  0.85892904  0.73393755    -0.21300
C1011       C  0.46959195  0.86446212  0.02109981    -0.09400
C1012       C  0.45190089  0.85455076  0.97610408     0.29500
F1013       F  0.46525055  0.86143966  0.92876452    -0.19900
H1014       H  0.40753737  0.82941001  0.94382744     0.17900
H1015       H  0.46702785  0.86654395  0.76868877     0.17900
F1016       F  0.40918683  0.83718859  0.78631019    -0.19900
C1017       C  0.56131773  0.84256537  0.96870001    -0.21300
C1018       C  0.56024720  0.85648110  0.01403656    -0.09400
C1019       C  0.57439402  0.85542583  0.72600379     0.29500
C1020       C  0.58575953  0.83606468  0.72846094    -0.21300
C1021       C  0.58350497  0.81779731  0.01659620    -0.09400
C1022       C  0.57283481  0.82339157  0.96971517     0.29500
F1023       F  0.57308639  0.81015340  0.92490873    -0.19900
H1024       H  0.55317800  0.84658208  0.93247132     0.17900
H1025       H  0.59923798  0.83716878  0.76164260     0.17900
F1026       F  0.58019460  0.87473760  0.76541083    -0.19900
loop_ 
_geom_bond_atom_site_label_1 
_geom_bond_atom_site_label_2 
_geom_bond_distance 
_geom_bond_site_symmetry_2 
_ccdc_geom_bond_type 
O1           Cu9   2.020       .  S
O1           C11   1.278       .  A
O2           Cu9   2.019       .  S
O2           C12   1.278       .  A
O3           Cu9   2.025       .  S
O3           C13   1.279       .  A
O4           Cu9   2.027       .  S
O4           C14   1.279       .  A
O5          Cu10   2.010       .  S
O5           C14   1.277       .  A
O6          Cu10   2.010       .  S
O6           C13   1.277       .  A
O7          Cu10   2.004       .  S
O7           C12   1.276       .  A
O8          Cu10   2.005       .  S
O8           C11   1.276       .  A
Cu9         Cu10   2.376       .  S
C11         C105   1.463       .  S
C12          C37   1.462       .  S
C13          C35   1.467       .  S
C14         C103   1.467       .  S
C15         C337   1.483       .  S
C15          N16   1.363       .  A
C15         N362   1.362       .  A
N16          C17   1.357       .  A
C17         C175   1.460       .  S
C17          N18   1.353       .  A
N18         C361   1.353       .  A
C19         C174   1.460       .  S
C19          N20   1.358       .  A
C19         N702   1.354       .  A
N20         C699   1.364       .  A
C21         C324   1.499       .  S
C21          N26   1.363       .  A
C21         N364   1.369       .  A
N22          C23   1.362       .  A
N22         C705   1.366       .  A
C23          C85   1.466       .  S
C23         N708   1.355       .  A
N24          C25   1.355       .  A
N24         C365   1.356       .  A
C25          C88   1.465       .  S
C25          N26   1.357       .  A
C27         C314   1.491       .  S
C27          N28   1.366       .  A
C27         N374   1.368       .  A
N28          C29   1.359       .  A
C29         C145   1.461       .  S
C29          N30   1.351       .  A
N30         C373   1.351       .  A
C31         C148   1.457       .  S
C31          N32   1.356       .  A
C31         N714   1.349   1_554  A
N32         C711   1.365   1_554  A
C33         C307   1.494       .  S
C33          N38   1.363       .  A
C33         N376   1.364       .  A
N34          C35   1.360       .  A
N34         C717   1.365   1_554  A
C35         N720   1.355   1_554  A
N36          C37   1.354       .  A
N36         C377   1.354       .  A
C37          N38   1.358       .  A
C39         C327   1.487       .  S
C39          C40   1.399       .  A
C39          C44   1.419       .  A
C40          C41   1.400       .  A
C40          H59   1.085       .  S
C41         C334   1.482       .  S
C41          C42   1.417       .  A
C42          C43   1.418       .  A
C42          C49   1.408       .  A
C43          C44   1.422       .  A
C43          C48   1.424       .  A
C44          C45   1.404       .  A
C45          C46   1.396       .  A
C45          H55   1.083       .  S
C46          C47   1.408       .  A
C46          H56   1.082       .  S
C47          C48   1.419       .  A
C47          C54   1.419   1_565  A
C48          C51   1.422       .  A
C49          C50   1.392       .  A
C49          H57   1.082       .  S
C50          C51   1.404       .  A
C50          H58   1.083       .  S
C51          C52   1.416   1_565  A
C52         C304   1.485       .  S
C52          C53   1.399       .  A
C53          C54   1.401       .  A
C53          H60   1.085       .  S
C54         C317   1.487       .  S
O61         Cu69   2.025       .  S
O61          C71   1.279       .  A
O62         Cu69   2.019       .  S
O62          C72   1.278       .  A
O63         Cu69   2.010       .  S
O63          C73   1.277       .  A
O64         Cu69   2.017       .  S
O64          C74   1.278       .  A
O65         Cu70   2.006       .  S
O65          C74   1.277       .  A
O66         Cu70   2.005       .  S
O66          C73   1.276       .  A
O67         Cu70   2.008       .  S
O67          C72   1.276       .  A
O68         Cu70   2.006       .  S
O68          C71   1.276       .  A
Cu69        Cu70   2.377       .  S
C71          C93   1.465       .  S
C72         C181   1.463       .  S
C73         C179   1.458       .  S
C74          C91   1.462       .  S
O75         Cu83   2.010       .  S
O75          C85   1.277       .  A
O76         Cu83   2.001       .  S
O76          C86   1.276       .  A
O77         Cu83   2.016       .  S
O77          C87   1.277       .  A
O78         Cu83   2.006       .  S
O78          C88   1.276       .  A
O79         Cu84   2.025       .  S
O79          C88   1.279       .  A
O80         Cu84   2.027       .  S
O80          C87   1.280       .  A
O81         Cu84   2.010       .  S
O81          C86   1.277       .  A
O82         Cu84   2.022       .  S
O82          C85   1.278       .  A
Cu83        Cu84   2.377       .  S
C86          C97   1.456       .  S
C87          C99   1.469       .  S
C89         C297   1.493       .  S
C89          N90   1.364       .  A
C89         N778   1.364   1_554  A
N90          C91   1.358       .  A
C91          N92   1.354       .  A
N92         C777   1.353   1_554  A
C93          N94   1.359       .  A
C93         N434   1.355       .  A
N94         C431   1.364       .  A
C95         C284   1.498       .  S
C95         N100   1.370       .  A
C95         N780   1.364   1_554  A
N96          C97   1.354       .  A
N96         C437   1.362       .  A
C97         N440   1.351       .  A
N98          C99   1.353       .  A
N98         C781   1.351   1_554  A
C99         N100   1.366       .  A
C101        C274   1.491       .  S
C101        N106   1.364   1_556  A
C101        N786   1.363       .  A
N102        C103   1.360       .  A
N102        C443   1.364       .  A
C103        N446   1.356       .  A
N104        C105   1.354   1_556  A
N104        C787   1.354       .  A
C105        N106   1.357       .  A
C107        C264   1.494       .  S
C107        N108   1.366   1_556  A
C107        N796   1.368       .  A
N108        C109   1.358       .  A
C109        C161   1.461       .  S
C109        N110   1.350   1_554  A
N110        C795   1.350       .  A
C111        C160   1.463       .  S
C111        N112   1.362       .  A
C111        N452   1.351       .  A
N112        C449   1.369       .  A
C113        C287   1.491       .  S
C113        C114   1.403       .  A
C113        C118   1.422       .  A
C114        C115   1.401       .  A
C114        H133   1.085       .  S
C115        C294   1.484       .  S
C115        C116   1.414       .  A
C116        C117   1.419       .  A
C116        C123   1.406   1_554  A
C117        C118   1.421       .  A
C117        C122   1.424   1_554  A
C118        C119   1.408       .  A
C119        C120   1.397   1_554  A
C119        H129   1.082       .  S
C120        C121   1.406       .  A
C120        H130   1.082       .  S
C121        C122   1.420       .  A
C121        C128   1.419   1_455  A
C122        C125   1.420       .  A
C123        C124   1.391       .  A
C123        H131   1.082       .  S
C124        C125   1.405       .  A
C124        H132   1.083       .  S
C125        C126   1.414   1_455  A
C126        C277   1.481       .  S
C126        C127   1.398       .  A
C127        C128   1.401       .  A
C127        H134   1.085       .  S
C128        C267   1.484       .  S
O135       Cu143   2.012       .  S
O135        C145   1.277       .  A
O136       Cu143   2.005       .  S
O136        C146   1.277       .  A
O137       Cu143   2.008       .  S
O137        C147   1.276       .  A
O138       Cu143   2.006       .  S
O138        C148   1.276       .  A
O139       Cu144   2.009       .  S
O139        C148   1.277       .  A
O140       Cu144   2.016       .  S
O140        C147   1.278       .  A
O141       Cu144   2.014       .  S
O141        C146   1.277       .  A
O142       Cu144   2.010       .  S
O142        C145   1.277       .  A
Cu143      Cu144   2.378       .  S
C146        C191   1.459       .  S
C147        C193   1.462       .  S
O149       Cu157   2.022       .  S
O149        C159   1.278       .  A
O150       Cu157   2.014       .  S
O150        C160   1.277       .  A
O151       Cu157   2.013       .  S
O151        C161   1.277       .  A
O152       Cu157   2.025       .  S
O152        C162   1.279       .  A
O153       Cu158   2.012       .  S
O153        C162   1.277       .  A
O154       Cu158   2.013       .  S
O154        C161   1.277       .  A
O155       Cu158   2.014       .  S
O155        C160   1.277       .  A
O156       Cu158   2.005       .  S
O156        C159   1.276       .  A
Cu157      Cu158   2.377       .  S
C159        C199   1.463       .  S
C162        C197   1.468       .  S
O163       Cu171   2.013       .  S
O163        C173   1.277       .  A
O164       Cu171   2.016       .  S
O164        C174   1.278       .  A
O165       Cu171   2.012       .  S
O165        C175   1.277       .  A
O166       Cu171   2.014       .  S
O166        C176   1.277       .  A
O167       Cu172   2.006       .  S
O167        C176   1.277       .  A
O168       Cu172   2.006       .  S
O168        C175   1.276       .  A
O169       Cu172   2.002       .  S
O169        C174   1.276       .  A
O170       Cu172   2.003       .  S
O170        C173   1.276       .  A
Cu171      Cu172   2.378       .  S
C173        C187   1.459       .  S
C176        C185   1.460       .  S
C177        C257   1.494       .  S
C177        N182   1.367       .  A
C177        N862   1.365   1_554  A
N178        C179   1.358       .  A
N178        C519   1.365       .  A
C179        N522   1.350       .  A
N180        C181   1.352       .  A
N180        C863   1.351   1_554  A
C181        N182   1.361       .  A
C183        C244   1.488       .  S
C183        N188   1.363       .  A
C183        N526   1.364       .  A
N184        C185   1.356       .  A
N184        C867   1.362       .  A
C185        N870   1.354       .  A
N186        C187   1.353       .  A
N186        C527   1.353       .  A
C187        N188   1.355       .  A
C189        C234   1.491       .  S
C189        N194   1.366       .  A
C189        N532   1.363       .  A
N190        C191   1.354       .  A
N190        C873   1.363   1_554  A
C191        N876   1.352   1_554  A
N192        C193   1.353       .  A
N192        C533   1.352       .  A
C193        N194   1.361       .  A
C195        C224   1.494       .  S
C195        N200   1.363   1_556  A
C195        N880   1.366       .  A
N196        C197   1.362       .  A
N196        C537   1.366       .  A
C197        N540   1.355       .  A
N198        C199   1.354   1_556  A
N198        C881   1.355       .  A
C199        N200   1.358       .  A
C201        C596   1.487       .  S
C201        C202   1.400       .  A
C201        C206   1.419       .  A
C202        C203   1.396       .  A
C202        H221   1.085       .  S
C203        C247   1.477       .  S
C203        C204   1.413       .  A
C204        C205   1.418       .  A
C204        C211   1.407       .  A
C205        C206   1.423       .  A
C205        C210   1.422       .  A
C206        C207   1.405       .  A
C207        C208   1.396       .  A
C207        H217   1.083       .  S
C208        C209   1.408       .  A
C208        H218   1.082       .  S
C209        C210   1.418       .  A
C209        C216   1.415       .  A
C210        C213   1.423       .  A
C211        C212   1.393       .  A
C211        H219   1.082       .  S
C212        C213   1.404       .  A
C212        H220   1.083       .  S
C213        C214   1.415       .  A
C214        C227   1.483       .  S
C214        C215   1.397       .  A
C215        C216   1.398       .  A
C215        H222   1.085       .  S
C216        C237   1.478       .  S
C223        C224   1.410   1_554  A
C223        C228   1.401       .  A
C223        H230   1.083       .  S
C224        C909   1.411       .  A
C225        C226   1.403       .  A
C225        C566   1.413       .  A
C225        F232   1.357       .  S
C226        C227   1.402       .  A
C226        H231   1.083       .  S
C227        C570   1.401       .  A
C228        C911   1.406   1_554  A
C228        F229   1.358       .  S
C233        C234   1.410       .  A
C233        C238   1.396       .  A
C233        H240   1.083       .  S
C234        C577   1.413       .  A
C235        C236   1.405       .  A
C235        C918   1.412       .  A
C235        F242   1.357       .  S
C236        C921   1.404       .  A
C236        H241   1.083       .  S
C237        C238   1.400       .  A
C237        C578   1.401       .  A
C238        F239   1.358       .  S
C243        C244   1.409       .  A
C243        C248   1.395       .  A
C243        H250   1.083       .  S
C244        C587   1.413       .  A
C245        C246   1.400       .  A
C245        C928   1.415       .  A
C245        F252   1.357       .  S
C246        C931   1.399       .  A
C246        H251   1.083       .  S
C247        C248   1.400       .  A
C247        C588   1.400       .  A
C248        F249   1.358       .  S
C253        C258   1.402       .  A
C253        C596   1.402       .  A
C253        H260   1.083       .  S
C254        C885   1.484       .  S
C254        C255   1.403       .  A
C254        C937   1.400   1_554  A
C255        C256   1.403       .  A
C255        F262   1.357       .  S
C256        C257   1.410       .  A
C256        H261   1.083       .  S
C257        C942   1.413   1_554  A
C258        C599   1.414       .  A
C258        F259   1.357       .  S
C263        C264   1.410       .  A
C263        C268   1.404       .  A
C263        H270   1.083       .  S
C264        C949   1.413   1_556  A
C265        C266   1.400       .  A
C265        C606   1.416       .  A
C265        F272   1.357       .  S
C266        C609   1.401       .  A
C266        H271   1.083       .  S
C267        C268   1.403       .  A
C267        C950   1.400   1_556  A
C268        F269   1.357       .  S
C273        C274   1.408   1_554  A
C273        C278   1.396       .  A
C273        H280   1.083       .  S
C274        C959   1.414       .  A
C275        C276   1.402       .  A
C275        C616   1.415       .  A
C275        F282   1.357       .  S
C276        C619   1.400       .  A
C276        H281   1.083       .  S
C277        C278   1.401   1_556  A
C277        C960   1.401       .  A
C278        F279   1.357       .  S
C283        C284   1.409       .  A
C283        C288   1.406       .  A
C283        H290   1.083       .  S
C284        C969   1.415   1_554  A
C285        C286   1.397       .  A
C285        C626   1.413       .  A
C285        F292   1.357       .  S
C286        C629   1.400       .  A
C286        H291   1.084       .  S
C287        C288   1.407       .  A
C287        C970   1.400   1_554  A
C288        F289   1.357       .  S
C293        C298   1.401       .  A
C293        C636   1.401       .  A
C293        H300   1.083       .  S
C294        C295   1.402       .  A
C294        C977   1.401   1_554  A
C295        C296   1.400       .  A
C295        F302   1.357       .  S
C296        C297   1.411       .  A
C296        H301   1.083       .  S
C297        C982   1.414   1_554  A
C298        C639   1.414       .  A
C298        F299   1.357       .  S
C303        C304   1.401       .  A
C303        C308   1.401       .  A
C303        H310   1.083       .  S
C304        C647   1.403       .  A
C305        C306   1.399       .  A
C305        C988   1.402   1_554  A
C305        F312   1.357       .  S
C306        C991   1.409   1_554  A
C306        H311   1.083       .  S
C307        C308   1.414       .  A
C307        C648   1.410       .  A
C308        F309   1.357       .  S
C313        C318   1.399       .  A
C313        C998   1.410   1_554  A
C313        H320   1.083       .  S
C314        C315   1.413       .  A
C314        C655   1.408       .  A
C315        C316   1.402       .  A
C315        F322   1.357       .  S
C316        C317   1.403       .  A
C316        H321   1.083       .  S
C317        C660   1.404       .  A
C318       C1001   1.402   1_554  A
C318        F319   1.358       .  S
C323        C324   1.412       .  A
C323        C328   1.400       .  A
C323        H330   1.083       .  S
C324        C667   1.413       .  A
C325        C326   1.405       .  A
C325       C1008   1.414       .  A
C325        F332   1.357       .  S
C326       C1011   1.403       .  A
C326        H331   1.083       .  S
C327        C328   1.402       .  A
C327        C668   1.403       .  A
C328        F329   1.358       .  S
C333        C334   1.402       .  A
C333        C338   1.396       .  A
C333        H340   1.084       .  S
C334        C677   1.404       .  A
C335        C336   1.398       .  A
C335       C1018   1.401       .  A
C335        F342   1.357       .  S
C336       C1021   1.408       .  A
C336        H341   1.083       .  S
C337        C338   1.409       .  A
C337        C678   1.408       .  A
C338        F339   1.357       .  S
O343       Cu351   2.029       .  S
O343        C353   1.279       .  A
O344       Cu351   2.031       .  S
O344        C354   1.280       .  A
O345       Cu351   2.021       .  S
O345        C355   1.278       .  A
O346       Cu351   2.024       .  S
O346        C356   1.279       .  A
O347       Cu352   2.004       .  S
O347        C356   1.276       .  A
O348       Cu352   2.000       .  S
O348        C355   1.276       .  A
O349       Cu352   2.010       .  S
O349        C354   1.276       .  A
O350       Cu352   2.004       .  S
O350        C353   1.276       .  A
Cu351      Cu352   2.376       .  S
C353        C447   1.466       .  S
C354        C379   1.469       .  S
C355        C377   1.462       .  S
C356        C445   1.463       .  S
C357        C679   1.490       .  S
C357        N358   1.362       .  A
C357        N704   1.367       .  A
N358        C359   1.356       .  A
C359        C517   1.460       .  S
C359        N360   1.353       .  A
N360        C703   1.354       .  A
C361        C516   1.457       .  S
C361        N362   1.356       .  A
C363        C666   1.497       .  S
C363        N706   1.367       .  A
C363        N368   1.361       .  A
N364        C365   1.365       .  A
C365        C427   1.473       .  S
N366        C707   1.355       .  A
N366        C367   1.354       .  A
C367        C430   1.460       .  S
C367        N368   1.355       .  A
C369        C656   1.494       .  S
C369        N370   1.366       .  A
C369        N716   1.366       .  A
N370        C371   1.359       .  A
C371        C487   1.460       .  S
C371        N372   1.351       .  A
N372        C715   1.351       .  A
C373        C490   1.464       .  S
C373        N374   1.360       .  A
C375        C649   1.497       .  S
C375        N718   1.365       .  A
C375        N380   1.367       .  A
N376        C377   1.359       .  A
N378        C719   1.354       .  A
N378        C379   1.354       .  A
C379        N380   1.363       .  A
C381        C669   1.487       .  S
C381        C382   1.401       .  A
C381        C386   1.417       .  A
C382        C383   1.403       .  A
C382        H401   1.085       .  S
C383        C676   1.489       .  S
C383        C384   1.420       .  A
C384        C385   1.420       .  A
C384        C391   1.407       .  A
C385        C386   1.421       .  A
C385        C390   1.426       .  A
C386        C387   1.405       .  A
C387        C388   1.394       .  A
C387        H397   1.083       .  S
C388        C389   1.407       .  A
C388        H398   1.082       .  S
C389        C390   1.420       .  A
C389        C396   1.417   1_565  A
C390        C393   1.423       .  A
C391        C392   1.394       .  A
C391        H399   1.082       .  S
C392        C393   1.405       .  A
C392        H400   1.082       .  S
C393        C394   1.421   1_565  A
C394        C646   1.494       .  S
C394        C395   1.403       .  A
C395        C396   1.402       .  A
C395        H402   1.085       .  S
C396        C659   1.487       .  S
O403       Cu411   2.019       .  S
O403        C413   1.278       .  A
O404       Cu411   2.010       .  S
O404        C414   1.277       .  A
O405       Cu411   2.018       .  S
O405        C415   1.278       .  A
O406       Cu411   2.026       .  S
O406        C416   1.279       .  A
O407       Cu412   2.005       .  S
O407        C416   1.276       .  A
O408       Cu412   2.010       .  S
O408        C415   1.276       .  A
O409       Cu412   2.014       .  S
O409        C414   1.277       .  A
O410       Cu412   2.013       .  S
O410        C413   1.277       .  A
Cu411      Cu412   2.377       .  S
C413        C435   1.464       .  S
C414        C523   1.461       .  S
C415        C521   1.463       .  S
C416        C433   1.465       .  S
O417       Cu425   2.013       .  S
O417        C427   1.276       .  A
O418       Cu425   2.005       .  S
O418        C428   1.276       .  A
O419       Cu425   2.009       .  S
O419        C429   1.277       .  A
O420       Cu425   2.001       .  S
O420        C430   1.276       .  A
O421       Cu426   2.018       .  S
O421        C430   1.277       .  A
O422       Cu426   2.016       .  S
O422        C429   1.278       .  A
O423       Cu426   2.027       .  S
O423        C428   1.279       .  A
O424       Cu426   2.036       .  S
O424        C427   1.281       .  A
Cu425      Cu426   2.376       .  S
C428        C439   1.464       .  S
C429        C441   1.462       .  S
C431        C639   1.493       .  S
C431        N432   1.364       .  A
N432        C433   1.359       .  A
C433        N434   1.355       .  A
C435        N776   1.353       .  A
C435        N436   1.360       .  A
N436        C773   1.365       .  A
C437        C626   1.489       .  S
C437        N442   1.367       .  A
N438        C779   1.365       .  A
N438        C439   1.359       .  A
C439        N782   1.352       .  A
N440        C441   1.352       .  A
C441        N442   1.362       .  A
C443        C616   1.495       .  S
C443        N448   1.364       .  A
N444        C785   1.365       .  A
N444        C445   1.361       .  A
C445        N788   1.353       .  A
N446        C447   1.356       .  A
C447        N448   1.359       .  A
C449        C606   1.495       .  S
C449        N450   1.364       .  A
N450        C451   1.356       .  A
C451        C503   1.457       .  S
C451        N452   1.350       .  A
C453        C502   1.463       .  S
C453        N794   1.350       .  A
C453        N454   1.363       .  A
N454        C791   1.369       .  A
C455        C629   1.484       .  S
C455        C456   1.401       .  A
C455        C460   1.420       .  A
C456        C457   1.398       .  A
C456        H475   1.085       .  S
C457        C636   1.482       .  S
C457        C458   1.414       .  A
C458        C459   1.420       .  A
C458        C465   1.405       .  A
C459        C460   1.420       .  A
C459        C464   1.424       .  A
C460        C461   1.407       .  A
C461        C462   1.396       .  A
C461        H471   1.082       .  S
C462        C463   1.407       .  A
C462        H472   1.082       .  S
C463        C464   1.420       .  A
C463        C470   1.420   1_455  A
C464        C467   1.419       .  A
C465        C466   1.391       .  A
C465        H473   1.082       .  S
C466        C467   1.405       .  A
C466        H474   1.083       .  S
C467        C468   1.414   1_455  A
C468        C619   1.483       .  S
C468        C469   1.399       .  A
C469        C470   1.402       .  A
C469        H476   1.085       .  S
C470        C609   1.486       .  S
O477       Cu485   2.011       .  S
O477        C487   1.277       .  A
O478       Cu485   2.006       .  S
O478        C488   1.277       .  A
O479       Cu485   2.015       .  S
O479        C489   1.277       .  A
O480       Cu485   2.014       .  S
O480        C490   1.277       .  A
O481       Cu486   2.018       .  S
O481        C490   1.278       .  A
O482       Cu486   2.027       .  S
O482        C489   1.279       .  A
O483       Cu486   2.010       .  S
O483        C488   1.277       .  A
O484       Cu486   2.010       .  S
O484        C487   1.277       .  A
Cu485      Cu486   2.377       .  S
C488        C533   1.458       .  S
C489        C535   1.469       .  S
O491       Cu499   2.021       .  S
O491        C501   1.278       .  A
O492       Cu499   2.016       .  S
O492        C502   1.278       .  A
O493       Cu499   2.012       .  S
O493        C503   1.277       .  A
O494       Cu499   2.029       .  S
O494        C504   1.279       .  A
O495       Cu500   2.004       .  S
O495        C504   1.276       .  A
O496       Cu500   2.001       .  S
O496        C503   1.275       .  A
O497       Cu500   2.013       .  S
O497        C502   1.277       .  A
O498       Cu500   2.004       .  S
O498        C501   1.276       .  A
Cu499      Cu500   2.377       .  S
C501        C541   1.463       .  S
C504        C539   1.466       .  S
O505       Cu513   2.006       .  S
O505        C515   1.276       .  A
O506       Cu513   2.008       .  S
O506        C516   1.277       .  A
O507       Cu513   2.018       .  S
O507        C517   1.278       .  A
O508       Cu513   2.015       .  S
O508        C518   1.278       .  A
O509       Cu514   2.004       .  S
O509        C518   1.276       .  A
O510       Cu514   2.002       .  S
O510        C517   1.276       .  A
O511       Cu514   2.003       .  S
O511        C516   1.276       .  A
O512       Cu514   2.000       .  S
O512        C515   1.276       .  A
Cu513      Cu514   2.379       .  S
C515        C529   1.455       .  S
C518        C527   1.460       .  S
C519        C599   1.494       .  S
C519        N524   1.368       .  A
N520        C861   1.367       .  A
N520        C521   1.361       .  A
C521        N864   1.351       .  A
N522        C523   1.350       .  A
C523        N524   1.360       .  A
C525        C586   1.485       .  S
C525        N868   1.364       .  A
C525        N530   1.362       .  A
N526        C527   1.359       .  A
N528        C869   1.353       .  A
N528        C529   1.352       .  A
C529        N530   1.354       .  A
C531        C576   1.496       .  S
C531        N874   1.362       .  A
C531        N536   1.368       .  A
N532        C533   1.355       .  A
N534        C875   1.353       .  A
N534        C535   1.354       .  A
C535        N536   1.364       .  A
C537        C566   1.493       .  S
C537        N542   1.363       .  A
N538        C879   1.364       .  A
N538        C539   1.361       .  A
C539        N882   1.355       .  A
N540        C541   1.354       .  A
C541        N542   1.356       .  A
C543        C938   1.487       .  S
C543        C544   1.399       .  A
C543        C548   1.420       .  A
C544        C545   1.398       .  A
C544        H563   1.085       .  S
C545        C589   1.480       .  S
C545        C546   1.414       .  A
C546        C547   1.419       .  A
C546        C553   1.406       .  A
C547        C548   1.422       .  A
C547        C552   1.424       .  A
C548        C549   1.405       .  A
C549        C550   1.397       .  A
C549        H559   1.083       .  S
C550        C551   1.408       .  A
C550        H560   1.082       .  S
C551        C552   1.419       .  A
C551        C558   1.418       .  A
C552        C555   1.422       .  A
C553        C554   1.390       .  A
C553        H561   1.082       .  S
C554        C555   1.405       .  A
C554        H562   1.082       .  S
C555        C556   1.417       .  A
C556        C569   1.490       .  S
C556        C557   1.401       .  A
C557        C558   1.401       .  A
C557        H564   1.085       .  S
C558        C579   1.484       .  S
C565        C566   1.410       .  A
C565        C570   1.398       .  A
C565        H572   1.083       .  S
C567        C908   1.412       .  A
C567        C568   1.402       .  A
C567        F574   1.357       .  S
C568        C569   1.403       .  A
C568        H573   1.083       .  S
C569        C912   1.405       .  A
C570        F571   1.358       .  S
C575        C576   1.412       .  A
C575        C580   1.399       .  A
C575        H582   1.083       .  S
C576        C919   1.412       .  A
C577        C578   1.401       .  A
C577        F584   1.357       .  S
C578        H583   1.083       .  S
C579        C920   1.403       .  A
C579        C580   1.401       .  A
C580        F581   1.358       .  S
C585        C586   1.408       .  A
C585        C590   1.396       .  A
C585        H592   1.083       .  S
C586        C929   1.411       .  A
C587        C588   1.400       .  A
C587        F594   1.357       .  S
C588        H593   1.083       .  S
C589        C930   1.401       .  A
C589        C590   1.403       .  A
C590        F591   1.358       .  S
C595        C938   1.402       .  A
C595        C600   1.403       .  A
C595        H602   1.083       .  S
C596        C597   1.404       .  A
C597        C598   1.400       .  A
C597        F604   1.357       .  S
C598        C599   1.408       .  A
C598        H603   1.083       .  S
C600        C941   1.415       .  A
C600        F601   1.357       .  S
C605        C606   1.409       .  A
C605        C610   1.402       .  A
C605        H612   1.083       .  S
C607        C948   1.416       .  A
C607        C608   1.401       .  A
C607        F614   1.357       .  S
C608        C951   1.400       .  A
C608        H613   1.083       .  S
C609        C610   1.404       .  A
C610        F611   1.357       .  S
C615        C616   1.410       .  A
C615        C620   1.399       .  A
C615        H622   1.083       .  S
C617        C958   1.415       .  A
C617        C618   1.403       .  A
C617        F624   1.357       .  S
C618        C961   1.401       .  A
C618        H623   1.083       .  S
C619        C620   1.402       .  A
C620        F621   1.358       .  S
C625        C626   1.408       .  A
C625        C630   1.402       .  A
C625        H632   1.083       .  S
C627        C968   1.416       .  A
C627        C628   1.402       .  A
C627        F634   1.357       .  S
C628        C971   1.402       .  A
C628        H633   1.083       .  S
C629        C630   1.406       .  A
C630        F631   1.357       .  S
C635        C978   1.403       .  A
C635        C640   1.399       .  A
C635        H642   1.083       .  S
C636        C637   1.401       .  A
C637        C638   1.400       .  A
C637        F644   1.357       .  S
C638        C639   1.410       .  A
C638        H643   1.083       .  S
C640        C981   1.412       .  A
C640        F641   1.357       .  S
C645        C646   1.404       .  A
C645        C650   1.403       .  A
C645        H652   1.083       .  S
C646        C989   1.405       .  A
C647        C648   1.400       .  A
C647        F654   1.357       .  S
C648        H653   1.083       .  S
C649        C990   1.410       .  A
C649        C650   1.412       .  A
C650        F651   1.357       .  S
C655        C660   1.399       .  A
C655        H662   1.083       .  S
C656        C997   1.410       .  A
C656        C657   1.413       .  A
C657        C658   1.401       .  A
C657        F664   1.357       .  S
C658        C659   1.402       .  A
C658        H663   1.083       .  S
C659       C1002   1.404       .  A
C660        F661   1.358       .  S
C665        C666   1.412       .  A
C665        C670   1.399       .  A
C665        H672   1.083       .  S
C666       C1009   1.413       .  A
C667        C668   1.405       .  A
C667        F674   1.357       .  S
C668        H673   1.083       .  S
C669       C1010   1.404       .  A
C669        C670   1.401       .  A
C670        F671   1.357       .  S
C675        C676   1.402       .  A
C675        C680   1.400       .  A
C675        H682   1.083       .  S
C676       C1019   1.406       .  A
C677        C678   1.399       .  A
C677        F684   1.358       .  S
C678        H683   1.083       .  S
C679       C1020   1.407       .  A
C679        C680   1.413       .  A
C680        F681   1.358       .  S
O685       Cu693   2.021       .  S
O685        C695   1.278       .  A
O686       Cu693   2.022       .  S
O686        C696   1.278       .  A
O687       Cu693   2.026       .  S
O687        C697   1.279       .  A
O688       Cu693   2.021       .  S
O688        C698   1.278       .  A
O689       Cu694   2.001       .  S
O689        C698   1.276       .  A
O690       Cu694   2.004       .  S
O690        C697   1.276       .  A
O691       Cu694   2.001       .  S
O691        C696   1.276       .  A
O692       Cu694   2.003       .  S
O692        C695   1.276       .  A
Cu693      Cu694   2.377       .  S
C695        C789   1.462       .  S
C696        C721   1.463       .  S
C697        C719   1.465       .  S
C698        C787   1.461       .  S
C699       C1021   1.488       .  S
C699        N700   1.362   1_554  A
N700        C701   1.357       .  A
C701        C859   1.458       .  S
C701        N702   1.353   1_556  A
C703        C858   1.468       .  S
C703        N704   1.364       .  A
C705       C1008   1.496       .  S
C705        N710   1.364   1_554  A
N706        C707   1.365       .  A
C707        C769   1.468       .  S
N708        C709   1.353   1_554  A
C709        C772   1.464       .  S
C709        N710   1.357       .  A
C711        C998   1.495       .  S
C711        N712   1.369       .  A
N712        C713   1.363       .  A
C713        C829   1.463       .  S
C713        N714   1.350       .  A
C715        C832   1.460       .  S
C715        N716   1.359       .  A
C717        C991   1.494       .  S
C717        N722   1.362       .  A
N718        C719   1.360       .  A
N720        C721   1.355       .  A
C721        N722   1.358       .  A
C723       C1011   1.485       .  S
C723        C724   1.400       .  A
C723        C728   1.420       .  A
C724        C725   1.398       .  A
C724        H743   1.085       .  S
C725       C1018   1.480       .  S
C725        C726   1.415       .  A
C726        C727   1.419       .  A
C726        C733   1.407   1_554  A
C727        C728   1.421       .  A
C727        C732   1.424   1_554  A
C728        C729   1.406       .  A
C729        C730   1.397   1_554  A
C729        H739   1.083       .  S
C730        C731   1.407       .  A
C730        H740   1.082       .  S
C731        C732   1.421       .  A
C731        C738   1.419   1_565  A
C732        C735   1.421       .  A
C733        C734   1.393       .  A
C733        H741   1.082   1_556  S
C734        C735   1.405       .  A
C734        H742   1.083       .  S
C735        C736   1.416   1_565  A
C736        C988   1.483       .  S
C736        C737   1.398       .  A
C737        C738   1.400       .  A
C737        H744   1.085       .  S
C738       C1001   1.484       .  S
O745       Cu753   2.023       .  S
O745        C755   1.279       .  A
O746       Cu753   2.021       .  S
O746        C756   1.278       .  A
O747       Cu753   2.011       .  S
O747        C757   1.277       .  A
O748       Cu753   2.016       .  S
O748        C758   1.277       .  A
O749       Cu754   2.005       .  S
O749        C758   1.276       .  A
O750       Cu754   2.008       .  S
O750        C757   1.277       .  A
O751       Cu754   2.008       .  S
O751        C756   1.276       .  A
O752       Cu754   2.003       .  S
O752        C755   1.276       .  A
Cu753      Cu754   2.378       .  S
C755        C777   1.463       .  S
C756        C865   1.463       .  S
C757        C863   1.460       .  S
C758        C775   1.461       .  S
O759       Cu767   2.012       .  S
O759        C769   1.277       .  A
O760       Cu767   2.008       .  S
O760        C770   1.277       .  A
O761       Cu767   2.014       .  S
O761        C771   1.277       .  A
O762       Cu767   2.003       .  S
O762        C772   1.276       .  A
O763       Cu768   2.025       .  S
O763        C772   1.279       .  A
O764       Cu768   2.028       .  S
O764        C771   1.280       .  A
O765       Cu768   2.017       .  S
O765        C770   1.277       .  A
O766       Cu768   2.027       .  S
O766        C769   1.279       .  A
Cu767      Cu768   2.376       .  S
C770        C781   1.462       .  S
C771        C783   1.469       .  S
C773        C981   1.493       .  S
C773        N774   1.364       .  A
N774        C775   1.358       .  A
C775        N776   1.353       .  A
C777        N778   1.359       .  A
C779        C968   1.502       .  S
C779        N784   1.370       .  A
N780        C781   1.356       .  A
N782        C783   1.353       .  A
C783        N784   1.365       .  A
C785        C958   1.496       .  S
C785        N790   1.365       .  A
N786        C787   1.359       .  A
N788        C789   1.353       .  A
C789        N790   1.359       .  A
C791        C948   1.498       .  S
C791        N792   1.365       .  A
N792        C793   1.357       .  A
C793        C845   1.459       .  S
C793        N794   1.349       .  A
C795        C844   1.461       .  S
C795        N796   1.361       .  A
C797        C971   1.494       .  S
C797        C798   1.405       .  A
C797        C802   1.424       .  A
C798        C799   1.403       .  A
C798        H817   1.085       .  S
C799        C978   1.487       .  S
C799        C800   1.415       .  A
C800        C801   1.419       .  A
C800        C807   1.407       .  A
C801        C802   1.422       .  A
C801        C806   1.426       .  A
C802        C803   1.408       .  A
C803        C804   1.399       .  A
C803        H813   1.082       .  S
C804        C805   1.407       .  A
C804        H814   1.082       .  S
C805        C806   1.420       .  A
C805        C812   1.421   1_455  A
C806        C809   1.421       .  A
C807        C808   1.389       .  A
C807        H815   1.082       .  S
C808        C809   1.404       .  A
C808        H816   1.083       .  S
C809        C810   1.415   1_455  A
C810        C961   1.486       .  S
C810        C811   1.399       .  A
C811        C812   1.403       .  A
C811        H818   1.085       .  S
C812        C951   1.487       .  S
O819       Cu827   2.010       .  S
O819        C829   1.277       .  A
O820       Cu827   2.000       .  S
O820        C830   1.276       .  A
O821       Cu827   2.015       .  S
O821        C831   1.277       .  A
O822       Cu827   2.007       .  S
O822        C832   1.276       .  A
O823       Cu828   2.016       .  S
O823        C832   1.277       .  A
O824       Cu828   2.028       .  S
O824        C831   1.279       .  A
O825       Cu828   2.020       .  S
O825        C830   1.278       .  A
O826       Cu828   2.019       .  S
O826        C829   1.278       .  A
Cu827      Cu828   2.377       .  S
C830        C875   1.460       .  S
C831        C877   1.469       .  S
O833       Cu841   2.021       .  S
O833        C843   1.278       .  A
O834       Cu841   2.015       .  S
O834        C844   1.277       .  A
O835       Cu841   2.013       .  S
O835        C845   1.277       .  A
O836       Cu841   2.026       .  S
O836        C846   1.279       .  A
O837       Cu842   2.009       .  S
O837        C846   1.276       .  A
O838       Cu842   2.006       .  S
O838        C845   1.276       .  A
O839       Cu842   2.010       .  S
O839        C844   1.277       .  A
O840       Cu842   2.004       .  S
O840        C843   1.277       .  A
Cu841      Cu842   2.377       .  S
C843        C883   1.463       .  S
C846        C881   1.467       .  S
O847       Cu855   2.027       .  S
O847        C857   1.279       .  A
O848       Cu855   2.029       .  S
O848        C858   1.280       .  A
O849       Cu855   2.016       .  S
O849        C859   1.277       .  A
O850       Cu855   2.018       .  S
O850        C860   1.278       .  A
O851       Cu856   2.001       .  S
O851        C860   1.276       .  A
O852       Cu856   1.997       .  S
O852        C859   1.275       .  A
O853       Cu856   2.010       .  S
O853        C858   1.276       .  A
O854       Cu856   2.006       .  S
O854        C857   1.276       .  A
Cu855      Cu856   2.377       .  S
C857        C871   1.465       .  S
C860        C869   1.459       .  S
C861        C941   1.498       .  S
C861        N866   1.367       .  A
N862        C863   1.357       .  A
N864        C865   1.351       .  A
C865        N866   1.360       .  A
C867        C928   1.491       .  S
C867        N872   1.366   1_554  A
N868        C869   1.359       .  A
N870        C871   1.354   1_554  A
C871        N872   1.360       .  A
C873        C918   1.496       .  S
C873        N878   1.369       .  A
N874        C875   1.355       .  A
N876        C877   1.353       .  A
C877        N878   1.365       .  A
C879        C908   1.492       .  S
C879        N884   1.363       .  A
N880        C881   1.362       .  A
N882        C883   1.355       .  A
C883        N884   1.357       .  A
C885        C886   1.400       .  A
C885        C890   1.419       .  A
C886        C887   1.398       .  A
C886        H905   1.085       .  S
C887        C931   1.480       .  S
C887        C888   1.414       .  A
C888        C889   1.418       .  A
C888        C895   1.406       .  A
C889        C890   1.422       .  A
C889        C894   1.424       .  A
C890        C891   1.405       .  A
C891        C892   1.396   1_554  A
C891        H901   1.083       .  S
C892        C893   1.408       .  A
C892        H902   1.082       .  S
C893        C894   1.419   1_556  A
C893        C900   1.417       .  A
C894        C897   1.423   1_554  A
C895        C896   1.390       .  A
C895        H903   1.082       .  S
C896        C897   1.405   1_554  A
C896        H904   1.081       .  S
C897        C898   1.419       .  A
C898        C911   1.493       .  S
C898        C899   1.402       .  A
C899        C900   1.402       .  A
C899        H906   1.085       .  S
C900        C921   1.486       .  S
C907        C908   1.409       .  A
C907        C912   1.400       .  A
C907        H914   1.083       .  S
C909        C910   1.402       .  A
C909        F916   1.357       .  S
C910        C911   1.404       .  A
C910        H915   1.083       .  S
C912        F913   1.358       .  S
C917        C918   1.412   1_554  A
C917        C922   1.398       .  A
C917        H924   1.083       .  S
C919        C920   1.403       .  A
C919        F926   1.357       .  S
C920        H925   1.083       .  S
C921        C922   1.401   1_556  A
C922        F923   1.358       .  S
C927        C928   1.408   1_556  A
C927        C932   1.397       .  A
C927        H934   1.083       .  S
C929        C930   1.399       .  A
C929        F936   1.357       .  S
C930        H935   1.083       .  S
C931        C932   1.402   1_554  A
C932        F933   1.358       .  S
C937        C942   1.399       .  A
C937        H944   1.084       .  S
C938        C939   1.403       .  A
C939        C940   1.402       .  A
C939        F946   1.357       .  S
C940        C941   1.411       .  A
C940        H945   1.083       .  S
C942        F943   1.357       .  S
C947        C948   1.410       .  A
C947        C952   1.404       .  A
C947        H954   1.083       .  S
C949        C950   1.399       .  A
C949        F956   1.357       .  S
C950        H955   1.084       .  S
C951        C952   1.404       .  A
C952        F953   1.357       .  S
C957        C958   1.410       .  A
C957        C962   1.400       .  A
C957        H964   1.083       .  S
C959        C960   1.403       .  A
C959        F966   1.357       .  S
C960        H965   1.083       .  S
C961        C962   1.402       .  A
C962        F963   1.358       .  S
C967        C968   1.411       .  A
C967        C972   1.407       .  A
C967        H974   1.083       .  S
C969        C970   1.399       .  A
C969        F976   1.357       .  S
C970        H975   1.084       .  S
C971        C972   1.407       .  A
C972        F973   1.357       .  S
C977        C982   1.400       .  A
C977        H984   1.083       .  S
C978        C979   1.403       .  A
C979        C980   1.402       .  A
C979        F986   1.357       .  S
C980        C981   1.411       .  A
C980        H985   1.083       .  S
C982        F983   1.357       .  S
C987        C988   1.401       .  A
C987        C992   1.402       .  A
C987        H994   1.083       .  S
C989        C990   1.403       .  A
C989        F996   1.358       .  S
C990        H995   1.083       .  S
C991        C992   1.415       .  A
C992        F993   1.357       .  S
C997       C1002   1.400       .  A
C997       H1004   1.083       .  S
C998        C999   1.413       .  A
C999       C1000   1.404       .  A
C999       F1006   1.357       .  S
C1000      C1001   1.403       .  A
C1000      H1005   1.083       .  S
C1002      F1003   1.357       .  S
C1007      C1008   1.411   1_556  A
C1007      C1012   1.399       .  A
C1007      H1014   1.083       .  S
C1009      C1010   1.405       .  A
C1009      F1016   1.357       .  S
C1010      H1015   1.083       .  S
C1011      C1012   1.401   1_554  A
C1012      F1013   1.357       .  S
C1017      C1018   1.401   1_556  A
C1017      C1022   1.400       .  A
C1017      H1024   1.083       .  S
C1019      C1020   1.403       .  A
C1019      F1026   1.357       .  S
C1020      H1025   1.083       .  S
C1021      C1022   1.413   1_554  A
C1022      F1023   1.358       .  S
