geometry optimzed in LAMMPS
_audit_creation_date              2020-11-30 
_audit_creation_method            'lammps2cif' 
_symmetry_space_group_name_H-M    'P1' 
_symmetry_Int_Tables_number       1 
_symmetry_cell_setting            triclinic 
loop_ 
_symmetry_equiv_pos_as_xyz 
  x,y,z 
_cell_length_a                    25.11437951 
_cell_length_b                    25.762432917439778 
_cell_length_c                    25.276331405772556 
_cell_angle_alpha                 89.92581937716585 
_cell_angle_beta                  88.95792238504335 
_cell_angle_gamma                 89.77019597229261 
loop_ 
_atom_site_label 
_atom_site_type_symbol 
_atom_site_fract_x 
_atom_site_fract_y 
_atom_site_fract_z 
_atom_site_charge 
O1          O  0.57355211  0.45903392  0.38108767    -0.79300
C2          C  0.44775070  0.59129117  0.41860002     0.81700
O3          O  0.55160610  0.55782365  0.45460819    -0.80500
O4          O  0.34662527  0.53570085  0.50427657    -0.81900
O5          O  0.46472637  0.44332846  0.57493216    -0.81700
O6          O  0.58078164  0.46835690  0.46738023    -0.80400
Zn7        Zn  0.48699251  0.47974773  0.35959225     1.55700
O8          O  0.38754426  0.44153796  0.53889720    -0.81800
Cd9        Cd  0.50274364  0.43575449  0.49296796     1.59700
Cd10       Cd  0.50010217  0.49731587  0.49907494     1.59600
O11         O  0.53185081  0.36827706  0.51358740    -0.81800
O12         O  0.46289107  0.45373563  0.43548379    -1.92300
Cd13       Cd  0.39846194  0.49226379  0.46221809     1.59900
O14         O  0.55659275  0.44277672  0.55371828    -0.81700
O15         O  0.45165921  0.56689989  0.46086463    -0.80400
C16         C  0.56037350  0.56220499  0.40377605     0.82200
C17         C  0.60121718  0.45402115  0.42381989     0.81800
O18         O  0.45755492  0.56532686  0.37556832    -0.79300
C19         C  0.41591525  0.43248795  0.57942557     0.82600
O20         O  0.53729578  0.53376540  0.37180186    -0.79400
C21         C  0.56008227  0.39201004  0.54744546     0.82800
C22         C  0.37759686  0.54801671  0.54148528     0.83100
O23         O  0.42818035  0.53416221  0.54350130    -0.81800
O24         O  0.43536547  0.34966599  0.20814924    -0.79300
C25         C  0.56778808  0.31312764  0.35579263     0.81700
O26         O  0.55285980  0.30766679  0.20926915    -0.80500
O27         O  0.50851368  0.22704767  0.39565745    -0.81900
O28         O  0.44439144  0.16603683  0.28843421    -0.81700
O29         O  0.46359811  0.27635837  0.17561433    -0.80400
Zn30       Zn  0.48693270  0.34425939  0.26832036     1.55700
O31         O  0.42803569  0.19394001  0.36935421    -0.81800
Cd32       Cd  0.43941841  0.24524255  0.25566683     1.59700
Cd33       Cd  0.49845674  0.24803637  0.25523413     1.59600
O34         O  0.37249423  0.22852702  0.22491098    -0.81800
O35         O  0.44575222  0.29515475  0.30408156    -1.92300
Cd36       Cd  0.44248195  0.28085816  0.38782373     1.59900
O37         O  0.44926469  0.19007839  0.19693352    -0.81700
O38         O  0.53502091  0.29322295  0.38970177    -0.80400
C39         C  0.55701429  0.35854677  0.20454039     0.82200
C40         C  0.44095421  0.31923021  0.16860395     0.81800
O41         O  0.55050480  0.33209916  0.31397737    -0.79300
C42         C  0.42853241  0.15672580  0.33530271     0.82600
O43         O  0.52829224  0.38923858  0.23152010    -0.79400
C44         C  0.39703128  0.19497558  0.19589968     0.82800
C45         C  0.53959451  0.19999281  0.36695915     0.83100
O46         O  0.54040684  0.20404541  0.31560922    -0.81800
C47         C  0.82259566  0.74915632  0.94379947     0.79400
N48         N  0.77999878  0.77221229  0.91903629    -0.78900
C49         C  0.75469426  0.81491098  0.94046940     0.81800
N50         N  0.77373067  0.83458295  0.98684758    -0.78900
C51         C  0.81690817  0.81355892  0.01167478     0.81900
N52         N  0.84095300  0.77069725  0.98972305    -0.80600
C53         C  0.00186688  0.93474094  0.94351879     0.79400
N54         N  0.97593683  0.91366025  0.98615630    -0.78900
C55         C  0.92983947  0.93471226  0.00482650     0.81800
N56         N  0.91014307  0.97833089  0.98099875    -0.78900
C57         C  0.93449545  0.00013922  0.93777022     0.81900
N58         N  0.98023437  0.97716359  0.91829266    -0.80600
C59         C  0.00815905  0.80637101  0.83579032     0.79400
N60         N  0.98546210  0.83098821  0.79356779    -0.78900
C61         C  0.94331281  0.80923596  0.76853764     0.81800
N62         N  0.92303742  0.76385948  0.78687302    -0.78900
C63         C  0.94447950  0.73907668  0.82849820     0.81900
N64         N  0.98745921  0.76019830  0.85288251    -0.80600
C65         C  0.12626865  0.84633604  0.92648483     0.85600
C66         C  0.08736739  0.88396560  0.95555857    -0.54600
C67         C  0.05106422  0.90795300  0.92311552     0.08600
C68         C  0.05779068  0.89204741  0.86480976     0.19500
C69         C  0.08795878  0.80813048  0.89842329    -0.55300
C70         C  0.05186200  0.83245781  0.86554640     0.08700
C71         C  0.15109881  0.87749191  0.88171645    -0.54900
C72         C  0.11671848  0.90154996  0.85054242     0.09200
H73         H  0.08396952  0.88600741  0.99820160     0.13700
H74         H  0.02935845  0.91216007  0.83851681    -0.00500
H75         H  0.08831283  0.76660225  0.90529380     0.14100
H76         H  0.19384438  0.87983556  0.87416823     0.13800
C77         C  0.83484331  0.91454957  0.12270451     0.85600
C78         C  0.86614273  0.94230688  0.07937418    -0.54600
C79         C  0.90075791  0.91161920  0.05142967     0.08600
C80         C  0.89834985  0.85283257  0.06951406     0.19500
C81         C  0.80600637  0.87083418  0.09206959    -0.55300
C82         C  0.83848760  0.83977421  0.06100040     0.08700
C83         C  0.87566673  0.89010568  0.15624979    -0.54900
C84         C  0.90595830  0.85351361  0.13186850     0.09200
H85         H  0.85889912  0.98266253  0.06944756     0.13700
H86         H  0.92651382  0.82704124  0.04758610    -0.00500
H87         H  0.76305013  0.87018789  0.08895711     0.14100
H88         H  0.87570605  0.89634031  0.19888155     0.13800
C89         C  0.81361152  0.98213705  0.82088850     0.79400
N90         N  0.76700246  0.96017361  0.83700731    -0.78900
C91         C  0.74599773  0.91806502  0.81239610     0.81800
N92         N  0.77227265  0.89785919  0.76883412    -0.78900
C93         C  0.81903689  0.91980436  0.75034709     0.81900
N94         N  0.83980456  0.96129124  0.77762511    -0.80600
C95         C  0.87465481  0.82772649  0.63580941     0.85600
C96         C  0.89840952  0.79846982  0.68217763    -0.54600
C97         C  0.91997531  0.83147127  0.71970749     0.08600
C98         C  0.91159428  0.89136919  0.70646311     0.19500
C99         C  0.83177931  0.86361336  0.66505712    -0.55300
C100        C  0.85107336  0.89527749  0.70454330     0.08700
C101        C  0.92312690  0.85817672  0.61960599    -0.54900
C102        C  0.93254250  0.89981612  0.64798859     0.09200
H103        H  0.89669167  0.75679504  0.68680551     0.13700
H104        H  0.92968411  0.91788902  0.73560153    -0.00500
H105        H  0.78953582  0.85645518  0.66129943     0.14100
H106        H  0.93971239  0.85522267  0.57891564     0.13800
C107        C  0.90800088  0.62301226  0.91438853     0.85600
C108        C  0.94380289  0.65522357  0.87742817    -0.54600
C109        C  0.91684719  0.69279948  0.85032106     0.08600
C110        C  0.85502737  0.69145631  0.85935978     0.19500
C111        C  0.87874770  0.66494504  0.94897572    -0.55300
C112        C  0.84983007  0.70122823  0.92014262     0.08700
C113        C  0.86516904  0.60140190  0.88048961    -0.54900
C114        C  0.83825979  0.63381943  0.85051785     0.09200
H115        H  0.98700284  0.65320843  0.87827494     0.13700
H116        H  0.83299045  0.71994388  0.83497748    -0.00500
H117        H  0.88621261  0.66992008  0.99062019     0.14100
H118        H  0.85647019  0.55988092  0.88001971     0.13800
C119        C  0.63006130  0.90292841  0.90993106     0.85600
C120        C  0.67490132  0.87615836  0.94187867    -0.54600
C121        C  0.70593901  0.84072038  0.91485979     0.08600
C122        C  0.68858817  0.83814133  0.85575302     0.19500
C123        C  0.66135257  0.92817711  0.86339815    -0.55300
C124        C  0.69519314  0.89534857  0.83601449     0.08700
C125        C  0.59717934  0.86107026  0.88713177    -0.54900
C126        C  0.62562603  0.82849958  0.85662117     0.09200
H127        H  0.68486657  0.88929237  0.98113205     0.13700
H128        H  0.71201581  0.80990159  0.83161146    -0.00500
H129        H  0.66265173  0.97006407  0.85821939     0.14100
H130        H  0.55391902  0.86087712  0.88955963     0.13800
C131        C  0.83032190  0.10745020  0.90711433     0.85600
C132        C  0.80091401  0.06027506  0.88325972    -0.54600
C133        C  0.83437115  0.02853288  0.85162782     0.08600
C134        C  0.89459699  0.04743717  0.85194770     0.19500
C135        C  0.87601476  0.08061658  0.93864919    -0.55300
C136        C  0.90795106  0.04637311  0.91093346     0.08700
C137        C  0.85060848  0.13032267  0.85596119    -0.54900
C138        C  0.89299471  0.10646433  0.83508069     0.09200
H139        H  0.75839794  0.05403021  0.88819814     0.13700
H140        H  0.92208719  0.02351690  0.82711677    -0.00500
H141        H  0.87558805  0.08106395  0.98156336     0.14100
H142        H  0.83947925  0.16981596  0.84400346     0.13800
O143        O  0.37349726  0.54796105  0.31047376    -0.79300
C144        C  0.33057704  0.42401041  0.16421383     0.81700
O145        O  0.29586485  0.54812292  0.19529002    -0.80500
O146        O  0.23906034  0.35774016  0.22348325    -0.81900
O147        O  0.21003189  0.43939583  0.36727729    -0.81700
O148        O  0.29062579  0.55623549  0.33725987    -0.80400
Zn149      Zn  0.37683398  0.47092986  0.27140418     1.55700
O150        O  0.18064492  0.43161078  0.28642782    -0.81800
Cd151      Cd  0.29539259  0.47255364  0.37059341     1.59700
Cd152      Cd  0.24242235  0.49760383  0.24231769     1.59600
O153        O  0.22574850  0.52051546  0.37802359    -0.81800
O154        O  0.30025456  0.46600745  0.28905642    -1.92300
Cd155      Cd  0.25939919  0.42289901  0.25153841     1.59900
O156        O  0.19035682  0.53933064  0.29946396    -0.81700
O157        O  0.28757012  0.44759510  0.17359554    -0.80400
C158        C  0.34761026  0.54767718  0.19219871     0.82200
C159        C  0.33394547  0.57760432  0.32423949     0.81800
O160        O  0.36558988  0.42255860  0.20132657    -0.79300
C161        C  0.17280804  0.42709020  0.33548744     0.82600
O162        O  0.37516660  0.51827166  0.21900284    -0.79400
C163        C  0.19063637  0.54271670  0.35077207     0.82800
C164        C  0.20381648  0.37985209  0.19485029     0.83100
O165        O  0.19737890  0.43101733  0.19413987    -0.81800
O166        O  0.28521950  0.12769582  0.56150002    -0.79300
C167        C  0.13518324  0.17702638  0.42611875     0.81700
O168        O  0.28224082  0.16811207  0.45493682    -0.80500
O169        O  0.10213419  0.27009765  0.49020279    -0.81900
O170        O  0.20738596  0.31644949  0.55429479    -0.81700
O171        O  0.31740699  0.20384725  0.54184673    -0.80400
Zn172      Zn  0.21856177  0.13728573  0.51021594     1.55700
O173        O  0.12380521  0.29553644  0.57178222    -0.81800
Cd174      Cd  0.23815837  0.23734774  0.56671222     1.59700
Cd175      Cd  0.24008159  0.23383158  0.50474468     1.59600
O176        O  0.26933746  0.25700505  0.63343731    -0.81800
O177        O  0.18639619  0.19041452  0.55360574    -1.92300
Cd178      Cd  0.10220924  0.21072933  0.55144310     1.59900
O179        O  0.29945041  0.29081343  0.55597178    -0.81700
O180        O  0.10267537  0.19588078  0.46095737    -0.80400
C181        C  0.28358516  0.11732642  0.44592239     0.82200
C182        C  0.32502664  0.15891657  0.55932981     0.81800
O183        O  0.17992872  0.16045325  0.43945231    -0.79300
C184        C  0.16164537  0.32914942  0.57229508     0.82600
O185        O  0.25115949  0.08618814  0.46755536    -0.79400
C186        C  0.30008285  0.28851098  0.60810015     0.82800
C187        C  0.13542662  0.29278425  0.46025117     0.83100
O188        O  0.18584884  0.28162893  0.45988222    -0.81800
O189        O  0.55816633  0.80501063  0.62895845    -0.79300
C190        C  0.42266193  0.68115288  0.65681042     0.81700
O191        O  0.44021040  0.79475497  0.71272544    -0.80500
O192        O  0.47122807  0.59838124  0.76716084    -0.81900
O193        O  0.61936231  0.70597197  0.79785066    -0.81700
O194        O  0.58518623  0.81666096  0.71036413    -0.80400
Zn195      Zn  0.52561861  0.73436682  0.63954353     1.55700
O196        O  0.54283714  0.66840524  0.81772368    -0.81800
Cd197      Cd  0.62294112  0.73472712  0.71019279     1.59700
Cd198      Cd  0.49151421  0.74795661  0.76404435     1.59600
O199        O  0.62731764  0.77784320  0.78266721    -0.81800
O200        O  0.54273546  0.72044870  0.70989830    -1.92300
Cd201      Cd  0.51588939  0.65262021  0.73117243     1.59900
O202        O  0.54527449  0.79303057  0.81617402    -0.81700
O203        O  0.43273281  0.68199061  0.70548662    -0.80400
C204        C  0.43945910  0.80108297  0.66164798     0.82200
C205        C  0.57525467  0.83527473  0.66526031     0.81800
O206        O  0.45970437  0.69241818  0.62288599    -0.79300
C207        C  0.58799553  0.68451085  0.83215195     0.82600
O208        O  0.47212699  0.77990552  0.63133375    -0.79400
C209        C  0.59690445  0.79889676  0.81673611     0.82800
C210        C  0.44183988  0.62658893  0.79726364     0.83100
O211        O  0.44662359  0.67757970  0.80032299    -0.81800
O212        O  0.36883321  0.69062214  0.92952051    -0.79300
C213        C  0.35899215  0.80229693  0.08409887     0.81700
O214        O  0.30262700  0.69352114  0.06184280    -0.80500
O215        O  0.25865297  0.88492606  0.05868741    -0.81900
O216        O  0.17970498  0.77803608  0.96717025    -0.81700
O217        O  0.29096180  0.66456283  0.96294078    -0.80400
Zn218      Zn  0.38811113  0.75475782  0.97564195     1.55700
O219        O  0.21407942  0.85527527  0.96324117    -0.81800
Cd220      Cd  0.25870941  0.74186641  0.95109376     1.59700
Cd221      Cd  0.25555551  0.74262328  0.00978753     1.59600
O222        O  0.23286060  0.72131407  0.88312023    -0.81800
O223        O  0.31448879  0.78331810  0.95974443    -1.92300
Cd224      Cd  0.29324579  0.84155531  0.00511991     1.59900
O225        O  0.19687836  0.68808788  0.95827160    -0.81700
O226        O  0.31129160  0.79230478  0.07552473    -0.80400
C227        C  0.35333919  0.68484321  0.06191521     0.82200
C228        C  0.33164415  0.65610558  0.93352224     0.81800
O229        O  0.39345231  0.80084244  0.04541556    -0.79300
C230        C  0.17422036  0.82556526  0.95669597     0.82600
O231        O  0.38430534  0.70512285  0.02950165    -0.79400
C232        C  0.19976786  0.69070969  0.90635129     0.82800
C233        C  0.22022483  0.85625255  0.07423196     0.83100
O234        O  0.21487048  0.80737083  0.05993255    -0.81800
O235        O  0.07082333  0.44229743  0.89880065    -0.79300
C236        C  0.92970748  0.57131405  0.93331451     0.81700
O237        O  0.06434302  0.54994682  0.95982782    -0.80500
O238        O  0.88339619  0.52062890  0.02850445    -0.81900
O239        O  0.97964662  0.44617596  0.08835296    -0.81700
O240        O  0.09294720  0.45856521  0.98053650    -0.80400
Zn241      Zn  0.98759342  0.46772087  0.88280579     1.55700
O242        O  0.89972868  0.43346095  0.05747675    -0.81800
Cd243      Cd  0.01427178  0.43360562  0.00909709     1.59700
Cd244      Cd  0.01853860  0.49921592  0.01545507     1.59600
O245        O  0.03824642  0.36536222  0.02966893    -0.81800
O246        O  0.97133320  0.46008430  0.96000425    -1.92300
Cd247      Cd  0.88860213  0.45651759  0.97133637     1.59900
O248        O  0.07116483  0.43789489  0.06841730    -0.81700
O249        O  0.89874938  0.54452177  0.96325308    -0.80400
C250        C  0.06822832  0.55220066  0.90841064     0.82200
C251        C  0.10515438  0.43976062  0.93620198     0.81800
O252        O  0.96310947  0.54817807  0.90237026    -0.79300
C253        C  0.93255367  0.43080621  0.09561691     0.82600
O254        O  0.04120143  0.52375355  0.87895930    -0.79400
C255        C  0.06858060  0.38676572  0.06350936     0.82800
C256        C  0.90992407  0.54757614  0.06069555     0.83100
O257        O  0.96137146  0.54489262  0.06216499    -0.81800
O258        O  0.18290347  0.94274105  0.62788734    -0.79300
C259        C  0.33818160  0.05382335  0.67057464     0.81700
O260        O  0.29950733  0.93345942  0.71333445    -0.80500
O261        O  0.28087294  0.11446220  0.76914176    -0.81900
O262        O  0.14500698  0.04091865  0.79917499    -0.81700
O263        O  0.19279859  0.91723083  0.71033614    -0.80400
Zn264      Zn  0.22892090  0.01333132  0.62379343     1.55700
O265        O  0.22470215  0.03346798  0.83080745    -0.81800
Cd266      Cd  0.14718063  0.99141519  0.72671360     1.59700
Cd267      Cd  0.25271155  0.98895757  0.75683655     1.59600
O268        O  0.10235689  0.94533878  0.77224481    -0.81800
O269        O  0.20776974  0.03283241  0.69804066    -1.92300
Cd270      Cd  0.25585185  0.04596600  0.74918809     1.59900
O271        O  0.18709671  0.94541227  0.80383468    -0.81700
O272        O  0.33217711  0.02858587  0.71323840    -0.80400
C273        C  0.30383537  0.93381350  0.66273515     0.82200
C274        C  0.18117631  0.90661723  0.66366575     0.81800
O275        O  0.30017453  0.05463225  0.63637718    -0.79300
C276        C  0.17780204  0.04945150  0.83604042     0.82600
O277        O  0.27753421  0.96370096  0.63555727    -0.79400
C278        C  0.13642350  0.93227128  0.80656889     0.82800
C279        C  0.31332086  0.09337008  0.80138717     0.83100
O280        O  0.31469761  0.04268515  0.80687012    -0.81800
O281        O  0.86553736  0.67341961  0.45351070    -0.79300
C282        C  0.85872878  0.80891349  0.58050556     0.81700
O283        O  0.80494113  0.69980753  0.56365276    -0.80500
O284        O  0.75862404  0.89294214  0.53360427    -0.81900
O285        O  0.68337392  0.78232759  0.46748236    -0.81700
O286        O  0.78127230  0.66057227  0.47476008    -0.80400
Zn287      Zn  0.89301589  0.75729813  0.46513549     1.55700
O288        O  0.72200693  0.85661831  0.45057350    -0.81800
Cd289      Cd  0.76027639  0.74155842  0.45410614     1.59700
Cd290      Cd  0.75682290  0.74646600  0.51048990     1.59600
O291        O  0.73624150  0.72208451  0.38425663    -0.81800
O292        O  0.81702884  0.78302350  0.46327046    -1.92300
Cd293      Cd  0.81208643  0.86448643  0.47189545     1.59900
O294        O  0.69413008  0.69317833  0.45777324    -0.81700
O295        O  0.82371958  0.83634677  0.55788341    -0.80400
C296        C  0.85579766  0.69128802  0.56141780     0.82200
C297        C  0.82486480  0.64233493  0.45644951     0.81800
O298        O  0.89107387  0.78135436  0.55177898    -0.79300
C299        C  0.67986797  0.82822341  0.45115666     0.82600
O300        O  0.88534133  0.71283271  0.52751519    -0.79400
C301        C  0.69943653  0.69465134  0.40593923     0.82800
C302        C  0.72436437  0.86621392  0.55861778     0.83100
O303        O  0.72200311  0.81562481  0.55330753    -0.81800
O304        O  0.05174440  0.77737310  0.36510842    -0.79300
C305        C  0.91260361  0.65577166  0.32845984     0.81700
O306        O  0.05135759  0.68065989  0.29930994    -0.80500
O307        O  0.87593225  0.70985951  0.22672366    -0.81900
O308        O  0.96862487  0.79881308  0.17721993    -0.81700
O309        O  0.08049982  0.78053408  0.28236043    -0.80400
Zn310      Zn  0.96638544  0.76155038  0.37548830     1.55700
O311        O  0.88608347  0.80333397  0.20758356    -0.81800
Cd312      Cd  0.00355380  0.80875332  0.25472688     1.59700
Cd313      Cd  0.01054123  0.73393454  0.24356372     1.59600
O314        O  0.03617327  0.87194880  0.23008336    -0.81800
O315        O  0.95929265  0.76934685  0.29759185    -1.92300
Cd316      Cd  0.87578096  0.76866513  0.28894044     1.59900
O317        O  0.06320322  0.79587211  0.19249627    -0.81700
O318        O  0.88675236  0.68033391  0.29325799    -0.80400
C319        C  0.04673932  0.67213768  0.35012767     0.82200
C320        C  0.08993986  0.78358867  0.33100332     0.81800
O321        O  0.94197246  0.68074751  0.36065878    -0.79300
C322        C  0.92061462  0.81230677  0.17091216     0.82600
O323        O  0.01420465  0.69724313  0.37908610    -0.79400
C324        C  0.06509592  0.84716919  0.19613197     0.82800
C325        C  0.90646169  0.68699542  0.19374755     0.83100
O326        O  0.95756022  0.69206701  0.19391509    -0.81800
O327        O  0.61669783  0.07093909  0.94878875    -0.79300
C328        C  0.59236583  0.91312838  0.06651916     0.81700
O329        O  0.54765483  0.93986189  0.95217839    -0.80500
O330        O  0.50025005  0.95389062  0.15509860    -0.81900
O331        O  0.42135704  0.04264464  0.03326789    -0.81700
O332        O  0.53951043  0.03974954  0.92178369    -0.80400
Zn333      Zn  0.63061328  0.02170363  0.01576421     1.55700
O334        O  0.45911773  0.04240906  0.10982880    -0.81800
Cd335      Cd  0.50220564  0.05692376  0.99799484     1.59700
Cd336      Cd  0.49931135  0.99428559  0.00132346     1.59600
O337        O  0.47769975  0.12124541  0.96836140    -0.81800
O338        O  0.55754461  0.04182058  0.04018918    -1.92300
Cd339      Cd  0.53804818  0.00004683  0.10310992     1.59900
O340        O  0.44411329  0.04427667  0.94111856    -0.81700
O341        O  0.54621237  0.92455835  0.05343528    -0.80400
C342        C  0.59839508  0.94085077  0.94228111     0.82200
C343        C  0.57997456  0.06835991  0.91329036     0.81800
O344        O  0.62840339  0.94905830  0.06436529    -0.79300
C345        C  0.41814215  0.05125945  0.08229257     0.82600
O346        O  0.62779587  0.97311229  0.96288569    -0.79400
C347        C  0.44705120  0.09536144  0.93815210     0.82800
C348        C  0.46241925  0.94019290  0.12533488     0.83100
O349        O  0.45934835  0.95290083  0.07444583    -0.81800
C350        C  0.25590894  0.90896862  0.32153237     0.79400
N351        N  0.27586879  0.95402742  0.34254860    -0.78900
C352        C  0.31947916  0.97810766  0.31957422     0.81800
N353        N  0.34388409  0.95493998  0.27695986    -0.78900
C354        C  0.32492829  0.90970362  0.25639671     0.81900
N355        N  0.28086251  0.88769019  0.27848880    -0.80600
C356        C  0.51262261  0.80784401  0.33172171     0.79400
N357        N  0.49498831  0.82910146  0.28558003    -0.78900
C358        C  0.45741294  0.80460010  0.25641345     0.81800
N359        N  0.43589165  0.75933675  0.27507466    -0.78900
C360        C  0.45129986  0.73840790  0.32208039     0.81900
N361        N  0.48993773  0.76292002  0.35003882    -0.80600
C362        C  0.34649623  0.63012785  0.34892748     0.85600
C363        C  0.31308441  0.67557957  0.37217891    -0.54600
C364        C  0.34316768  0.70888426  0.40391388     0.08600
C365        C  0.40474943  0.69203594  0.40449083     0.19500
C366        C  0.39108584  0.65964717  0.31732692    -0.55300
C367        C  0.42095940  0.69342973  0.34602392     0.08700
C368        C  0.36490567  0.60881982  0.40093346    -0.54900
C369        C  0.40611560  0.63294960  0.42013816     0.09200
H370        H  0.27073363  0.68029000  0.36594890     0.13700
H371        H  0.42970599  0.71681705  0.42988942    -0.00500
H372        H  0.38850149  0.66429696  0.27500130     0.14100
H373        H  0.35490196  0.56941963  0.41424822     0.13800
C374        C  0.50319169  0.93037341  0.44869749     0.79400
N375        N  0.47739003  0.97070620  0.42489661    -0.78900
C376        C  0.43036639  0.98981561  0.44520229     0.81800
N377        N  0.40916759  0.96732106  0.48985817    -0.78900
C378        C  0.43448990  0.92669040  0.51431500     0.81900
N379        N  0.48124535  0.90851148  0.49323622    -0.80600
C380        C  0.31669470  0.81542074  0.50567291     0.79400
N381        N  0.34158206  0.77591810  0.47789537    -0.78900
C382        C  0.31789313  0.75405907  0.43456896     0.81800
N383        N  0.26924582  0.77269065  0.41963217    -0.78900
C384        C  0.24420908  0.81278867  0.44570992     0.81900
N385        N  0.26841326  0.83358844  0.48853030    -0.80600
C386        C  0.33888081  0.90075748  0.63032782     0.85600
C387        C  0.38000245  0.93185477  0.59725247    -0.54600
C388        C  0.41057182  0.90240095  0.56354704     0.08600
C389        C  0.39951027  0.84314793  0.57108604     0.19500
C390        C  0.30894371  0.87020388  0.58767010    -0.55300
C391        C  0.33978554  0.83899155  0.55567873     0.08700
C392        C  0.36849417  0.86287840  0.66260754    -0.54900
C393        C  0.40133155  0.83348917  0.63369323     0.09200
H394        H  0.37961575  0.97397310  0.59543391     0.13700
H395        H  0.42656649  0.81811148  0.54694137    -0.00500
H396        H  0.26838482  0.88009909  0.57802410     0.14100
H397        H  0.36612634  0.86122047  0.70558357     0.13800
C398        C  0.13498613  0.81767658  0.34911695     0.85600
C399        C  0.18214543  0.84152739  0.31742212    -0.54600
C400        C  0.20832253  0.88084357  0.34495744     0.08600
C401        C  0.18400332  0.88926448  0.40239733     0.19500
C402        C  0.15938824  0.79844140  0.40095839    -0.55300
C403        C  0.19092569  0.83340324  0.42614427     0.08700
C404        C  0.10346204  0.86571150  0.35899321    -0.54900
C405        C  0.12210502  0.89995994  0.39292440     0.09200
H406        H  0.19283141  0.82971687  0.27740046     0.13700
H407        H  0.20379532  0.91996694  0.42560034    -0.00500
H408        H  0.16353139  0.75698446  0.40778861     0.14100
H409        H  0.06539987  0.87115395  0.33926110     0.13800
C410        C  0.37310796  0.82922619  0.13418047     0.85600
C411        C  0.41451687  0.80034812  0.16766065    -0.53000
C412        C  0.43533633  0.82947071  0.20757264     0.08600
C413        C  0.41603065  0.88671019  0.20612524     0.19500
C414        C  0.33183021  0.85021916  0.17555647    -0.55300
C415        C  0.35473488  0.88214126  0.21311727     0.08700
C416        C  0.39755860  0.87771277  0.11322440    -0.54900
C417        C  0.42323459  0.90555736  0.14808467     0.09200
H418        H  0.42049787  0.75868192  0.16478335     0.13700
H419        H  0.43537890  0.91188111  0.23572261    -0.00500
H420        H  0.28953722  0.84198824  0.17450128     0.14100
H421        H  0.39684997  0.88837964  0.07142836     0.13800
C422        C  0.62975840  0.84777765  0.42308119     0.85600
C423        C  0.59137001  0.88361113  0.45459710    -0.54600
C424        C  0.55317771  0.90770154  0.42462372     0.08600
C425        C  0.55923316  0.89559077  0.36471531     0.19500
C426        C  0.59135601  0.81027495  0.39463875    -0.55300
C427        C  0.55441253  0.83523856  0.36305138     0.08700
C428        C  0.65234981  0.87932653  0.37822007    -0.54900
C429        C  0.61824037  0.90702394  0.34999782     0.09200
H430        H  0.58903910  0.88299037  0.49737229     0.13700
H431        H  0.53006255  0.91644651  0.33983606    -0.00500
H432        H  0.59258821  0.76856545  0.39988619     0.14100
H433        H  0.69462617  0.87882207  0.36813383     0.13800
C434        C  0.40000388  0.10576014  0.35204138     0.85600
C435        C  0.43165653  0.07203805  0.39105499    -0.54600
C436        C  0.40297464  0.03498049  0.41813066     0.08600
C437        C  0.34289267  0.03662078  0.40435107     0.19500
C438        C  0.37416983  0.06376309  0.31567585    -0.55300
C439        C  0.34368677  0.02671839  0.34348079     0.08700
C440        C  0.35202514  0.12718899  0.38135903    -0.54900
C441        C  0.32448580  0.09434552  0.41083021     0.09200
H442        H  0.47449363  0.06936968  0.38783788     0.13700
H443        H  0.31864562  0.00830118  0.42744699    -0.00500
H444        H  0.38059184  0.06243477  0.27315386     0.14100
H445        H  0.33963528  0.16772117  0.37868147     0.13800
O446        O  0.69295231  0.03803347  0.33221680    -0.79300
C447        C  0.69208565  0.90735946  0.18105413     0.81700
O448        O  0.69530960  0.94919395  0.31433140    -0.80500
O449        O  0.76541223  0.97288137  0.12454009    -0.81900
O450        O  0.80315003  0.09394228  0.19941923    -0.81700
O451        O  0.69060149  0.11442705  0.29420964    -0.80400
Zn452      Zn  0.68009825  0.00000735  0.25531475     1.55700
O453        O  0.79236808  0.04526231  0.12877003    -0.81800
Cd454      Cd  0.71884937  0.12658089  0.20875856     1.59700
Cd455      Cd  0.74627486  0.00431846  0.25598468     1.59600
O456        O  0.77187608  0.14979329  0.27285787    -0.81800
O457        O  0.69623316  0.04625379  0.20489039    -1.92300
Cd458      Cd  0.70190933  0.02857852  0.12273471     1.59900
O459        O  0.78894987  0.06741992  0.29680277    -0.81700
O460        O  0.69383282  0.94003949  0.14224548    -0.80400
C461        C  0.64301944  0.94438031  0.31300795     0.82200
C462        C  0.68338517  0.08598528  0.33539361     0.81800
O463        O  0.70540149  0.92295632  0.22632483    -0.79300
C464        C  0.82300944  0.06926016  0.16063386     0.82600
O465        O  0.61483676  0.97115118  0.28063881    -0.79400
C466        C  0.79571706  0.11751996  0.30196456     0.82800
C467        C  0.79842025  0.94975448  0.15337291     0.83100
O468        O  0.79986172  0.95803527  0.20394143    -0.81800
O469        O  0.84596543  0.19423410  0.94018886    -0.79300
C470        C  0.81757313  0.32247118  0.09413427     0.81700
O471        O  0.81766670  0.19589370  0.03583925    -0.80500
O472        O  0.72676073  0.38152372  0.03534999    -0.81900
O473        O  0.66866917  0.28934507  0.96510823    -0.81700
O474        O  0.76518773  0.16680224  0.95192155    -0.80400
Zn475      Zn  0.85179830  0.26708135  0.99017507     1.55700
O476        O  0.70286744  0.36750898  0.95389964    -0.81800
Cd477      Cd  0.74290977  0.25125333  0.94438130     1.59700
Cd478      Cd  0.74682559  0.24647345  0.00227082     1.59600
O479        O  0.71350349  0.23830066  0.87527161    -0.81800
O480        O  0.79541137  0.29890315  0.95552936    -1.92300
Cd481      Cd  0.78964562  0.38003361  0.97779121     1.59900
O482        O  0.67888576  0.20028227  0.94856704    -0.81700
O483        O  0.80961186  0.36414006  0.06733500    -0.80400
C484        C  0.87019974  0.19282604  0.04240658     0.82200
C485        C  0.81193008  0.15746693  0.93602338     0.81800
O486        O  0.81218806  0.27991403  0.07062198    -0.79300
C487        C  0.66388508  0.33557775  0.94969844     0.82600
O488        O  0.90237819  0.22814811  0.02744283    -0.79400
C489        C  0.67926818  0.20784736  0.89696511     0.82800
C490        C  0.69955452  0.35139694  0.06400797     0.83100
O491        O  0.70398261  0.30090251  0.06006448    -0.81800
C492        C  0.49688190  0.44082380  0.94345645     0.79400
N493        N  0.47672267  0.42076034  0.98956413    -0.78900
C494        C  0.43050622  0.43917375  0.01203153     0.81800
N495        N  0.40431173  0.47938380  0.98753823    -0.78900
C496        C  0.42539376  0.50125155  0.94215410     0.81900
N497        N  0.47097778  0.48074977  0.92036826    -0.80600
C498        C  0.31094482  0.48167252  0.82276755     0.79400
N499        N  0.26627511  0.46153714  0.84661661    -0.78900
C500        C  0.24007646  0.42060548  0.82411711     0.81800
N501        N  0.26026294  0.39974949  0.77789167    -0.78900
C502        C  0.30589226  0.41895662  0.75424383     0.81900
N503        N  0.33033398  0.45941161  0.77733725    -0.80600
C504        C  0.40331731  0.59831806  0.83178648     0.85600
C505        C  0.43195918  0.57431365  0.87936216    -0.54600
C506        C  0.40056616  0.54686262  0.91408970     0.08600
C507        C  0.34104759  0.55276148  0.90036435     0.19500
C508        C  0.37336539  0.55369315  0.80774964    -0.55300
C509        C  0.33935370  0.52880151  0.84256202     0.08700
C510        C  0.35875611  0.63226434  0.85039540    -0.54900
C511        C  0.33212872  0.61368498  0.89311914     0.09200
H512        H  0.47501772  0.57127679  0.87942259     0.13700
H513        H  0.31348804  0.53415588  0.92944138    -0.00500
H514        H  0.37878728  0.54291307  0.76646156     0.14100
H515        H  0.35597699  0.67269462  0.83780488     0.13800
C516        C  0.49726929  0.31824877  0.82377621     0.79400
N517        N  0.47483645  0.34125120  0.77946288    -0.78900
C518        C  0.43597678  0.31570021  0.75146648     0.81800
N519        N  0.41990093  0.26827598  0.76959138    -0.78900
C520        C  0.44009818  0.24569324  0.81353479     0.81900
N521        N  0.47874844  0.27093905  0.84032816    -0.80600
C522        C  0.61705437  0.35340951  0.91729170     0.85600
C523        C  0.58207788  0.39239660  0.94744857    -0.54600
C524        C  0.54517252  0.41700128  0.91747239     0.08600
C525        C  0.55057661  0.40345933  0.85736541     0.19500
C526        C  0.57621736  0.31739102  0.88886388    -0.55300
C527        C  0.54113697  0.34395370  0.85573340     0.08700
C528        C  0.64329786  0.38166399  0.87162671    -0.54900
C529        C  0.61107884  0.40978190  0.84240918     0.09200
H530        H  0.58252146  0.39558171  0.99031022     0.13700
H531        H  0.52313285  0.42610059  0.83215398    -0.00500
H532        H  0.57539858  0.27565016  0.89422408     0.14100
H533        H  0.68607793  0.38101716  0.86358582     0.13800
C534        C  0.33412338  0.32511019  0.63903538     0.85600
C535        C  0.37802681  0.30133051  0.67317038    -0.54600
C536        C  0.40801226  0.33631787  0.70157148     0.08600
C537        C  0.39152431  0.39412500  0.68744821     0.19500
C538        C  0.30153679  0.35927623  0.67720633    -0.55300
C539        C  0.33044881  0.39430008  0.70499577     0.08700
C540        C  0.36243928  0.36098791  0.60205503    -0.54900
C541        C  0.39213211  0.39825545  0.62346491     0.09200
H542        H  0.38095672  0.25958894  0.67848811     0.13700
H543        H  0.41565862  0.42390625  0.70760398    -0.00500
H544        H  0.25931600  0.35295513  0.68480445     0.14100
H545        H  0.35996174  0.35653151  0.55940970     0.13800
C546        C  0.34819887  0.12757629  0.83369108     0.85600
C547        C  0.31701528  0.16248885  0.87279812    -0.54600
C548        C  0.34858854  0.19273306  0.90394554     0.08600
C549        C  0.40861190  0.18337803  0.89392388     0.19500
C550        C  0.38448569  0.16551944  0.80265231    -0.55300
C551        C  0.41570088  0.19617442  0.83405555     0.08700
C552        C  0.38491077  0.09561021  0.86699571    -0.54900
C553        C  0.41546165  0.12341917  0.89934317     0.09200
H554        H  0.27383590  0.16557578  0.87304486     0.13700
H555        H  0.43447413  0.20655951  0.92001392    -0.00500
H556        H  0.38195575  0.17086658  0.76014310     0.14100
H557        H  0.38555048  0.05344888  0.86666807     0.13800
C558        C  0.12711613  0.32539005  0.87375496     0.85600
C559        C  0.15542400  0.36382507  0.83338139    -0.54600
C560        C  0.19497022  0.39421818  0.85444751     0.08600
C561        C  0.19851669  0.38615096  0.91397955     0.19500
C562        C  0.17389226  0.29463055  0.89487708    -0.55300
C563        C  0.21151454  0.32628867  0.91773722     0.08700
C564        C  0.10981607  0.35411545  0.92318879    -0.54900
C565        C  0.14078415  0.39354965  0.93633349     0.09200
H566        H  0.15078072  0.35999655  0.79106455     0.13700
H567        H  0.22831108  0.41127006  0.93321538    -0.00500
H568        H  0.17888598  0.25318714  0.89006141     0.14100
H569        H  0.06866586  0.35251531  0.93807956     0.13800
C570        C  0.33534660  0.30764580  0.99363213     0.79400
N571        N  0.35441818  0.26264758  0.97158045    -0.78900
C572        C  0.32683081  0.23847136  0.93291242     0.81800
N573        N  0.28036533  0.25948840  0.91685005    -0.78900
C574        C  0.26164489  0.30459549  0.93761201     0.81900
N575        N  0.28934982  0.32889554  0.97586876    -0.80600
C576        C  0.41213120  0.33374718  0.11917810     0.85600
C577        C  0.39679471  0.30292444  0.07054986    -0.54600
C578        C  0.36226701  0.33145586  0.03906347     0.08600
C579        C  0.35115636  0.38917961  0.06028544     0.19500
C580        C  0.43846319  0.38288044  0.09350053    -0.55300
C581        C  0.40723206  0.41140199  0.06014930     0.08700
C582        C  0.35642898  0.34327895  0.14150694    -0.54900
C583        C  0.33331956  0.38417423  0.12049513     0.09200
H584        H  0.40829521  0.26283955  0.06343465     0.13700
H585        H  0.32296503  0.41217858  0.03626563    -0.00500
H586        H  0.48098143  0.38233431  0.08674290     0.14100
H587        H  0.34398197  0.32926048  0.18073879     0.13800
C588        C  0.75809872  0.56362899  0.18935475     0.79400
N589        N  0.73436831  0.52100535  0.16802034    -0.78900
C590        C  0.68906363  0.50090654  0.18989939     0.81800
N591        N  0.66706410  0.52438088  0.23401679    -0.78900
C592        C  0.69015777  0.56701743  0.25607897     0.81900
N593        N  0.73567943  0.58637816  0.23310415    -0.80600
C594        C  0.57079809  0.73904718  0.17832239     0.79400
N595        N  0.52722210  0.71424597  0.15845504    -0.78900
C596        C  0.50478462  0.67266015  0.18432020     0.81800
N597        N  0.52726625  0.65596397  0.23067838    -0.78900
C598        C  0.57071688  0.68050742  0.25121323     0.81900
N599        N  0.59183713  0.72180182  0.22446725    -0.80600
C600        C  0.66462204  0.66279352  0.37119003     0.85600
C601        C  0.69635011  0.62455755  0.33570200    -0.54600
C602        C  0.66596946  0.59387765  0.30411370     0.08600
C603        C  0.60536198  0.60292152  0.31462618     0.19500
C604        C  0.62949766  0.69251825  0.33115965    -0.55300
C605        C  0.59797225  0.66115323  0.30061692     0.08700
C606        C  0.62702629  0.63036381  0.40473333    -0.54900
C607        C  0.59649329  0.59895050  0.37685768     0.09200
H608        H  0.73932263  0.62557552  0.33187349     0.13700
H609        H  0.58002409  0.57690175  0.29088880    -0.00500
H610        H  0.63311483  0.73391786  0.32420340     0.14100
H611        H  0.62507199  0.63083735  0.44770853     0.13800
C612        C  0.57211400  0.56568503  0.99908119     0.79400
N613        N  0.59676163  0.52439561  0.02418417    -0.78900
C614        C  0.57304103  0.50053803  0.06737707     0.81800
N615        N  0.52528203  0.51978157  0.08539722    -0.78900
C616        C  0.50101924  0.56153032  0.06272310     0.81900
N617        N  0.52479396  0.58425068  0.01954866    -0.80600
C618        C  0.59455260  0.38654639  0.16776823     0.85600
C619        C  0.63174630  0.42289684  0.19774680    -0.54600
C620        C  0.66358657  0.45329081  0.16656781     0.08600
C621        C  0.65702060  0.44092012  0.10622725     0.19500
C622        C  0.56542290  0.42450052  0.13023213    -0.55300
C623        C  0.59702758  0.45386056  0.09697357     0.08700
C624        C  0.62943329  0.35228365  0.13347034    -0.54900
C625        C  0.66257550  0.37911376  0.10115756     0.09200
H626        H  0.62818513  0.42887769  0.24013995     0.13700
H627        H  0.68438349  0.46357122  0.08017653    -0.00500
H628        H  0.52359984  0.43331839  0.13608798     0.14100
H629        H  0.62806914  0.31015460  0.13448037     0.13800
C630        C  0.38206424  0.58197049  0.15912546     0.85600
C631        C  0.41711045  0.55256968  0.11771138    -0.54600
C632        C  0.45089377  0.58357570  0.08843434     0.08600
C633        C  0.44240954  0.64198967  0.10196680     0.19500
C634        C  0.42436386  0.61252231  0.19105438    -0.55300
C635        C  0.45659590  0.64483353  0.16161338     0.08700
C636        C  0.35013883  0.62064356  0.13001655    -0.54900
C637        C  0.37989829  0.65124836  0.09928049     0.09200
H638        H  0.41948916  0.51048437  0.11653661     0.13700
H639        H  0.46684265  0.66814891  0.07650440    -0.00500
H640        H  0.43198277  0.60434676  0.23225209     0.14100
H641        H  0.30685252  0.62208212  0.13114319     0.13800
C642        C  0.69958570  0.75192561  0.07786232     0.79400
N643        N  0.67492586  0.73232815  0.03434866    -0.78900
C644        C  0.69100827  0.68673578  0.01161293     0.81800
N645        N  0.73348200  0.66125351  0.03187088    -0.78900
C646        C  0.75946747  0.68011398  0.07468865     0.81900
N647        N  0.74164073  0.72502803  0.09834509    -0.80600
C648        C  0.61124001  0.66471097  0.88450733     0.85600
C649        C  0.57416864  0.62498021  0.91586574    -0.54600
C650        C  0.59919286  0.59444190  0.95311491     0.08600
C651        C  0.65876748  0.60418990  0.95168230     0.19500
C652        C  0.63539130  0.69614994  0.92947116    -0.55300
C653        C  0.66221082  0.66473108  0.96526551     0.08700
C654        C  0.66170671  0.63838712  0.86437496    -0.54900
C655        C  0.67626240  0.59749402  0.89206489     0.09200
H656        H  0.53121705  0.62811229  0.91499990     0.13700
H657        H  0.68121451  0.57894662  0.97913277    -0.00500
H658        H  0.63353082  0.73816644  0.93204627     0.14100
H659        H  0.67615370  0.64222668  0.82350342     0.13800
C660        C  0.60301101  0.86370996  0.09739720     0.85600
C661        C  0.65231562  0.83634538  0.07206444    -0.54600
C662        C  0.67860100  0.80169279  0.10294073     0.08600
C663        C  0.65589691  0.80367448  0.15956154     0.19500
C664        C  0.56864663  0.81698337  0.11517322    -0.55300
C665        C  0.59591862  0.78481955  0.15047657     0.08700
C666        C  0.61208480  0.88543774  0.15173737    -0.54900
C667        C  0.65231402  0.86331264  0.17646404     0.09200
H668        H  0.65246228  0.82981947  0.03002611     0.13700
H669        H  0.67874518  0.77946599  0.18761575    -0.00500
H670        H  0.52749181  0.81138554  0.10416561     0.14100
H671        H  0.59839701  0.92457484  0.16238474     0.13800
C672        C  0.87660380  0.58344672  0.09421047     0.85600
C673        C  0.83917477  0.55423983  0.13219691    -0.54600
C674        C  0.80775746  0.58501808  0.16390456     0.08600
C675        C  0.81848524  0.64371113  0.15449807     0.19500
C676        C  0.83682456  0.61802097  0.06385074    -0.55300
C677        C  0.80632144  0.65049270  0.09526043     0.08700
C678        C  0.90949480  0.61939779  0.12690084    -0.54900
C679        C  0.88025313  0.65100471  0.15816251     0.09200
H680        H  0.83028858  0.51372415  0.12596611     0.13700
H681        H  0.79420976  0.66941989  0.18072879    -0.00500
H682        H  0.82855183  0.61210527  0.02242379     0.14100
H683        H  0.95276508  0.61979898  0.12574466     0.13800
O684        O  0.69840630  0.43378314  0.69502635    -0.79300
C685        C  0.82847477  0.55996572  0.67780496     0.81700
O686        O  0.79322984  0.45460971  0.69391240    -0.80500
O687        O  0.76913095  0.63285123  0.78513393    -0.81900
O688        O  0.62922757  0.55470282  0.82308622    -0.81700
O689        O  0.61361545  0.45260991  0.70238310    -0.80400
Zn690      Zn  0.72635359  0.50396921  0.65864526     1.55700
O691        O  0.71339212  0.53560113  0.83479842    -0.81800
Cd692      Cd  0.60842385  0.54048355  0.73200864     1.59700
Cd693      Cd  0.74520533  0.50141178  0.75559532     1.59600
O694        O  0.60322856  0.47545669  0.78209708    -0.81800
O695        O  0.69241645  0.54803946  0.71021648    -1.92300
Cd696      Cd  0.74199542  0.56580104  0.75825626     1.59900
O697        O  0.68711689  0.45077276  0.79925486    -0.81700
O698        O  0.82118255  0.54398530  0.72409910    -0.80400
C699        C  0.79506973  0.44285828  0.64323871     0.82200
C700        C  0.65138072  0.41937196  0.69352176     0.81800
O701        O  0.78979607  0.55623875  0.64543561    -0.79300
C702        C  0.67052457  0.55379934  0.85324742     0.82600
O703        O  0.76238938  0.46073406  0.61037417    -0.79400
C704        C  0.63560667  0.44679706  0.80565777     0.82800
C705        C  0.80107522  0.60721071  0.81434739     0.83100
O706        O  0.80176638  0.55583537  0.81313638    -0.81800
O707        O  0.87520792  0.04166555  0.46639625    -0.79300
C708        C  0.92668594  0.94216937  0.60752243     0.81700
O709        O  0.95137213  0.04804815  0.55624819    -0.80500
O710        O  0.01401668  0.85936417  0.52759869    -0.81900
O711        O  0.03093857  0.92898488  0.39389152    -0.81700
O712        O  0.93529846  0.03619293  0.40168059    -0.80400
Zn713      Zn  0.86121609  0.95885658  0.49286643     1.55700
O714        O  0.07286740  0.94043874  0.46721622    -0.81800
Cd715      Cd  0.94244799  0.94879585  0.38394198     1.59700
Cd716      Cd  0.99770016  0.99069000  0.50694577     1.59600
O717        O  0.00619671  0.00432969  0.36389985    -0.81800
O718        O  0.93710908  0.95008388  0.46715179    -1.92300
Cd719      Cd  0.99277076  0.92916586  0.50555635     1.59900
O720        O  0.03693762  0.03062348  0.44223307    -0.81700
O721        O  0.96978722  0.95748670  0.58662443    -0.80400
C722        C  0.90019775  0.04890487  0.56435806     0.82200
C723        C  0.90705307  0.06402158  0.43309079     0.81800
O724        O  0.88454275  0.94185814  0.57857436    -0.79300
C725        C  0.07469839  0.92696491  0.41943356     0.82600
O726        O  0.87043244  0.01771690  0.54104538    -0.79400
C727        C  0.03672177  0.03253296  0.39092172     0.82800
C728        C  0.04683101  0.88091099  0.55883375     0.83100
O729        O  0.05451087  0.93171123  0.55824707    -0.81800
C730        C  0.67833888  0.07209332  0.75810863     0.79400
N731        N  0.72553788  0.09219417  0.73855928    -0.78900
C732        C  0.75315519  0.06824836  0.69852781     0.81800
N733        N  0.73272161  0.02411309  0.67828819    -0.78900
C734        C  0.68573607  0.00323458  0.69555640     0.81900
N735        N  0.65788007  0.02786155  0.73558221    -0.80600
C736        C  0.49896889  0.17885501  0.66739921     0.79400
N737        N  0.52044333  0.15858965  0.71263007    -0.78900
C738        C  0.55656024  0.18685351  0.74026981     0.81800
N739        N  0.57036385  0.23483246  0.72192226    -0.78900
C740        C  0.54992813  0.25482663  0.67691856     0.81900
N741        N  0.51457652  0.22645323  0.64968840    -0.80600
C742        C  0.56323785  0.06199573  0.50208429     0.79400
N743        N  0.59252479  0.02483331  0.52599948    -0.78900
C744        C  0.57406942  0.99983142  0.57029846     0.81800
N745        N  0.52521284  0.01385006  0.59192071    -0.78900
C746        C  0.49417717  0.05079019  0.56760216     0.81900
N747        N  0.51402123  0.07410865  0.52292593    -0.80600
C748        C  0.67818301  0.18195521  0.51237478     0.79400
N749        N  0.72198978  0.15770481  0.53272389    -0.78900
C750        C  0.74655286  0.17666978  0.57714670     0.81800
N751        N  0.72626990  0.22042455  0.60136906    -0.78900
C752        C  0.68259594  0.24531994  0.58156527     0.81900
N753        N  0.65944706  0.22547832  0.53748149    -0.80600
C754        C  0.57758700  0.16673482  0.39717233     0.85600
C755        C  0.55100089  0.12421401  0.42936007    -0.54600
C756        C  0.58499687  0.09157237  0.45500056     0.08600
C757        C  0.64553648  0.10476157  0.44258175     0.19500
C758        C  0.61242878  0.19371781  0.43869040    -0.55300
C759        C  0.64891594  0.16220982  0.46363118     0.08700
C760        C  0.61398816  0.14098579  0.35949314    -0.54900
C761        C  0.65077224  0.10939006  0.37966001     0.09200
H762        H  0.50892402  0.12672739  0.43920345     0.13700
H763        H  0.67424913  0.07762899  0.46096267    -0.00500
H764        H  0.60436296  0.23320798  0.45136581     0.14100
H765        H  0.60932425  0.14625905  0.31714501     0.13800
C766        C  0.37589519  0.14416352  0.58739620     0.85600
C767        C  0.42331247  0.17765858  0.60318848    -0.54600
C768        C  0.45674384  0.15148566  0.63819695     0.08600
C769        C  0.43974374  0.09316902  0.64821406     0.19500
C770        C  0.40395094  0.09538047  0.56160639    -0.55300
C771        C  0.44181059  0.07109692  0.59198326     0.08700
C772        C  0.35465494  0.13449503  0.64268279    -0.54900
C773        C  0.37922293  0.09562826  0.66649220     0.09200
H774        H  0.42732432  0.21829955  0.59249038     0.13700
H775        H  0.46520512  0.07163482  0.67626225    -0.00500
H776        H  0.40388815  0.09034887  0.51897412     0.14100
H777        H  0.31443976  0.14655585  0.65518457     0.13800
C778        C  0.63990378  0.37013806  0.66368723     0.85600
C779        C  0.59248276  0.34027813  0.68745766    -0.54600
C780        C  0.57171370  0.30389140  0.65457079     0.08600
C781        C  0.59677193  0.30530554  0.59840541     0.19500
C782        C  0.67964355  0.32651278  0.64404829    -0.55300
C783        C  0.65648136  0.29184396  0.60857171     0.08700
C784        C  0.62415171  0.39344993  0.61247160    -0.54900
C785        C  0.59663354  0.36315958  0.58102415     0.09200
H786        H  0.58388376  0.34060425  0.72975153     0.13700
H787        H  0.57657172  0.27932955  0.57013609    -0.00500
H788        H  0.72094279  0.32403232  0.65574754     0.14100
H789        H  0.63152569  0.43426714  0.60283454     0.13800
C790        C  0.68470139  0.89584138  0.59266953     0.85600
C791        C  0.64873746  0.93450838  0.56278521    -0.54600
C792        C  0.60887828  0.95765592  0.59304334     0.08600
C793        C  0.60979072  0.93917136  0.65159981     0.19500
C794        C  0.70623170  0.92812638  0.63809002    -0.55300
C795        C  0.66810161  0.95377355  0.66847042     0.08700
C796        C  0.64892507  0.85815101  0.61817385    -0.54900
C797        C  0.60896516  0.87799749  0.64697410     0.09200
H798        H  0.65584824  0.94400333  0.52140700     0.13700
H799        H  0.57773551  0.95604192  0.67711920    -0.00500
H800        H  0.74852943  0.93575482  0.64094043     0.14100
H801        H  0.65440956  0.81630845  0.61390050     0.13800
C802        C  0.86921200  0.08555855  0.59936140     0.85600
C803        C  0.83671900  0.05797856  0.64392274    -0.54600
C804        C  0.80384941  0.08995720  0.67358740     0.08600
C805        C  0.81189729  0.14790488  0.65796134     0.19500
C806        C  0.82518039  0.11531603  0.56932381    -0.55300
C807        C  0.79511398  0.14911515  0.59906485     0.08700
C808        C  0.90284018  0.12518525  0.62594763    -0.54900
C809        C  0.87447868  0.15700366  0.65773632     0.09200
H810        H  0.83431456  0.01594096  0.64645866     0.13700
H811        H  0.78858033  0.17491632  0.68364877    -0.00500
H812        H  0.81467963  0.10573491  0.52914802     0.14100
H813        H  0.94608794  0.12530107  0.62350226     0.13800
C814        C  0.64442100  0.17647584  0.86214890     0.85600
C815        C  0.67802250  0.13365392  0.83428954    -0.54600
C816        C  0.65037568  0.09995544  0.80353196     0.08600
C817        C  0.58971366  0.10911172  0.80973326     0.19500
C818        C  0.61393684  0.20173106  0.81769964    -0.55300
C819        C  0.58361677  0.16730459  0.78926833     0.08700
C820        C  0.60026050  0.15264514  0.89419823    -0.54900
C821        C  0.57846174  0.11067620  0.87212280     0.09200
H822        H  0.72128122  0.13463294  0.83374282     0.13700
H823        H  0.56529412  0.08064397  0.78802049    -0.00500
H824        H  0.61709467  0.24286695  0.80886170     0.14100
H825        H  0.59418205  0.16172933  0.93602750     0.13800
C826        C  0.00721739  0.66740239  0.68733102     0.79400
N827        N  0.02763287  0.64733123  0.73333952    -0.78900
C828        C  0.06940819  0.67218758  0.75744487     0.81800
N829        N  0.09017898  0.71586428  0.73479311    -0.78900
C830        C  0.07140728  0.73490836  0.68880544     0.81900
N831        N  0.03032483  0.71052712  0.66574007    -0.80600
C832        C  0.88581484  0.65654945  0.59688988     0.85600
C833        C  0.93171331  0.68072928  0.62670427    -0.54600
C834        C  0.95797759  0.64742305  0.66012450     0.08600
C835        C  0.93473561  0.59064726  0.65695586     0.19500
C836        C  0.91278144  0.61080119  0.56654690    -0.55300
C837        C  0.94254605  0.57804858  0.59691622     0.08700
C838        C  0.85088091  0.63634582  0.63893265    -0.54900
C839        C  0.87190045  0.59722205  0.66630739     0.09200
H840        H  0.94396492  0.72046369  0.61959183     0.13700
H841        H  0.95407637  0.56242990  0.68377529    -0.00500
H842        H  0.91546446  0.61001066  0.52362428     0.14100
H843        H  0.80888305  0.64722974  0.64194005     0.13800
C844        C  0.17471978  0.67438003  0.49396769     0.79400
N845        N  0.22217689  0.65696832  0.51348146    -0.78900
C846        C  0.24702728  0.68223113  0.55336847     0.81800
N847        N  0.22364330  0.72564492  0.57392277    -0.78900
C848        C  0.17566546  0.74328587  0.55621223     0.81900
N849        N  0.15094642  0.71701322  0.51654408    -0.80600
C850        C  0.06138181  0.55154207  0.50681803     0.79400
N851        N  0.08331787  0.50902372  0.53122613    -0.78900
C852        C  0.06038863  0.48776566  0.57576663     0.81800
N853        N  0.01474438  0.51002415  0.59621244    -0.78900
C854        C  0.99181249  0.55217791  0.57275355     0.81900
N855        N  0.01576580  0.57271608  0.52812284    -0.80600
C856        C  0.18418605  0.50405337  0.68590580     0.79400
N857        N  0.16682859  0.52514331  0.73271611    -0.78900
C858        C  0.19108570  0.56643879  0.75472334     0.81800
N859        N  0.23366027  0.58791329  0.72907765    -0.78900
C860        C  0.25125401  0.56925142  0.68148067     0.81900
N861        N  0.22613736  0.52710030  0.65950543    -0.80600
C862        C  0.09226779  0.38554427  0.68333672     0.85600
C863        C  0.12732565  0.42789320  0.70556044    -0.54600
C864        C  0.15685110  0.45481626  0.66799746     0.08600
C865        C  0.14717308  0.43380440  0.60968614     0.19500
C866        C  0.05830294  0.41486651  0.64220960    -0.55300
C867        C  0.08617380  0.44247957  0.60451897     0.08700
C868        C  0.13140942  0.35160981  0.65542903    -0.54900
C869        C  0.15556208  0.37224023  0.61246908     0.09200
H870        H  0.12638565  0.43766927  0.74731911     0.13700
H871        H  0.17152011  0.45369693  0.57874985    -0.00500
H872        H  0.01579174  0.42013982  0.64840738     0.14100
H873        H  0.13483317  0.31049247  0.66524910     0.13800
C874        C  0.15317347  0.57525203  0.38315275     0.85600
C875        C  0.18238799  0.61658791  0.41545486    -0.54600
C876        C  0.15043606  0.64602476  0.44805365     0.08600
C877        C  0.09021720  0.63296014  0.44106985     0.19500
C878        C  0.12204642  0.54514620  0.42652639    -0.55300
C879        C  0.08789846  0.57429091  0.45727011     0.08700
C880        C  0.11338732  0.60374995  0.35048548    -0.54900
C881        C  0.08108187  0.63506159  0.37880052     0.09200
H882        H  0.22550479  0.61775391  0.41717444     0.13700
H883        H  0.06324627  0.65825084  0.46502859    -0.00500
H884        H  0.13173192  0.50536422  0.43649215     0.14100
H885        H  0.11267407  0.60168402  0.30756469     0.13800
C886        C  0.16632014  0.65679018  0.87304028     0.85600
C887        C  0.19897178  0.62246921  0.83463661    -0.54600
C888        C  0.16890186  0.59053307  0.80421563     0.08600
C889        C  0.10835917  0.59454682  0.81781602     0.19500
C890        C  0.12646190  0.68489489  0.83688912    -0.55300
C891        C  0.09593863  0.65237175  0.80662682     0.08700
C892        C  0.13373410  0.62048380  0.90710325    -0.54900
C893        C  0.10334615  0.58827497  0.87978829     0.09200
H894        H  0.24161529  0.62677395  0.82851243     0.13700
H895        H  0.08350796  0.56753327  0.79470608    -0.00500
H896        H  0.12699315  0.72663329  0.83125284     0.14100
H897        H  0.13389807  0.62013149  0.95008285     0.13800
C898        C  0.37219120  0.65556785  0.63799003     0.85600
C899        C  0.33474641  0.68778692  0.60237648    -0.54600
C900        C  0.29535165  0.65899552  0.57903236     0.08600
C901        C  0.29933377  0.60023920  0.59197911     0.19500
C902        C  0.33354637  0.62748942  0.67745176    -0.55300
C903        C  0.29506351  0.59782641  0.65285897     0.08700
C904        C  0.39372074  0.61246237  0.60451600    -0.54900
C905        C  0.35755912  0.58428646  0.58009313     0.09200
H906        H  0.33694999  0.72974064  0.59916697     0.13700
H907        H  0.26933012  0.57628361  0.57157179    -0.00500
H908        H  0.33638931  0.63063915  0.72012097     0.14100
H909        H  0.43629896  0.60511957  0.59929197     0.13800
C910        C  0.15205140  0.85736130  0.65121148     0.85600
C911        C  0.12951044  0.81536974  0.68874263    -0.54600
C912        C  0.09697448  0.78040550  0.66251263     0.08600
C913        C  0.09195073  0.79199565  0.60142646     0.19500
C914        C  0.18095075  0.82532274  0.60789013    -0.55300
C915        C  0.15042329  0.78999890  0.58215351     0.08700
C916        C  0.10179953  0.87975965  0.63099347    -0.54900
C917        C  0.07503384  0.85016058  0.59847229     0.09200
H918        H  0.13748760  0.81358808  0.73077783     0.13700
H919        H  0.06547822  0.76521407  0.57987507    -0.00500
H920        H  0.22318396  0.81869122  0.61017459     0.14100
H921        H  0.08945578  0.91965027  0.63991354     0.13800
C922        C  0.80824717  0.41732993  0.25295527     0.79400
N923        N  0.83193567  0.45840341  0.27721117    -0.78900
C924        C  0.81200765  0.47922529  0.32309303     0.81800
N925        N  0.76655508  0.45907675  0.34439985    -0.78900
C926        C  0.74063235  0.41900029  0.32057793     0.81900
N927        N  0.76227084  0.39742799  0.27514857    -0.80600
C928        C  0.89026563  0.60439919  0.34794829     0.85600
C929        C  0.92592820  0.57596833  0.39009027    -0.54600
C930        C  0.90060156  0.53889102  0.42066002     0.08600
C931        C  0.84064174  0.53976313  0.41002534     0.19500
C932        C  0.86765088  0.55967287  0.31620823    -0.55300
C933        C  0.83942729  0.52481102  0.34798048     0.08700
C934        C  0.83830565  0.62406509  0.37200936    -0.54900
C935        C  0.82213935  0.59916194  0.41497677     0.09200
H936        H  0.96904029  0.57893810  0.38871097     0.13700
H937        H  0.81750261  0.51288796  0.43587216    -0.00500
H938        H  0.87113029  0.55683094  0.27341850     0.14100
H939        H  0.82314935  0.66329969  0.36392981     0.13800
C940        C  0.62123155  0.33318819  0.37247473     0.85600
C941        C  0.65390535  0.36511080  0.32958148    -0.54600
C942        C  0.69377016  0.39547620  0.34990862     0.08600
C943        C  0.69349189  0.39392470  0.41032560     0.19500
C944        C  0.66466165  0.30265080  0.39933139    -0.55300
C945        C  0.70254263  0.33417688  0.42130229     0.08700
C946        C  0.60247585  0.36885875  0.41583319    -0.54900
C947        C  0.63515924  0.40685085  0.42791862     0.09200
H948        H  0.65118659  0.35717211  0.28764433     0.13700
H949        H  0.72364017  0.41908386  0.42892005    -0.00500
H950        H  0.66951503  0.26121005  0.39586749     0.14100
H951        H  0.56011160  0.37232489  0.42625844     0.13800
C952        C  0.81197804  0.24171141  0.44853130     0.79400
N953        N  0.77128793  0.26680445  0.42483899    -0.78900
C954        C  0.74992498  0.31089985  0.44598197     0.81800
N955        N  0.77022486  0.33080608  0.49110493    -0.78900
C956        C  0.81042251  0.30569586  0.51627132     0.81900
N957        N  0.83105629  0.26096582  0.49485954    -0.80600
C958        C  0.89718020  0.33759718  0.63675368     0.85600
C959        C  0.86180285  0.30331083  0.60161146    -0.54600
C960        C  0.83575668  0.33053709  0.56285814     0.08600
C961        C  0.84520815  0.38992447  0.56526174     0.19500
C962        C  0.93379564  0.36680022  0.59560848    -0.55300
C963        C  0.90600084  0.39512423  0.55786875     0.08700
C964        C  0.86108328  0.37919427  0.65857451    -0.54900
C965        C  0.83385739  0.40579563  0.62331513     0.09200
H966        H  0.86100669  0.26127175  0.60433368     0.13700
H967        H  0.82217479  0.41231289  0.53579156    -0.00500
H968        H  0.97667583  0.36269229  0.59439625     0.14100
H969        H  0.85611927  0.38673846  0.70091153     0.13800
C970        C  0.99792897  0.42810663  0.44404050     0.79400
N971        N  0.97481558  0.47251753  0.42455297    -0.78900
C972        C  0.92889805  0.49264260  0.44678837     0.81800
N973        N  0.90654449  0.46708185  0.48956473    -0.78900
C974        C  0.93058457  0.42388696  0.51108895     0.81900
N975        N  0.97560006  0.40465307  0.48733737    -0.80600
C976        C  0.93650802  0.24188155  0.32910336     0.79400
N977        N  0.98252296  0.26211689  0.34958015    -0.78900
C978        C  0.00601123  0.30535087  0.32728572     0.81800
N979        N  0.98285461  0.32803207  0.28511098    -0.78900
C980        C  0.93660810  0.31025877  0.26498661     0.81900
N981        N  0.91321470  0.26734966  0.28748529    -0.80600
C982        C  0.12426941  0.39826546  0.35789111     0.85600
C983        C  0.08920203  0.36255336  0.32313874    -0.54600
C984        C  0.05203013  0.33337296  0.35187260     0.08600
C985        C  0.05473823  0.34344395  0.41213726     0.19500
C986        C  0.08227494  0.43117672  0.38776460    -0.55300
C987        C  0.04582013  0.40336427  0.41702866     0.08700
C988        C  0.14824224  0.36132040  0.39747424    -0.54900
C989        C  0.11399081  0.33271970  0.42522262     0.09200
H990        H  0.09068006  0.36352605  0.28029528     0.13700
H991        H  0.02569566  0.32010447  0.43563877    -0.00500
H992        H  0.07625247  0.47179447  0.37908382     0.14100
H993        H  0.19098601  0.35602907  0.40181212     0.13800
C994        C  0.91446858  0.39833203  0.14318856     0.85600
C995        C  0.86668163  0.42501605  0.17208933    -0.54600
C996        C  0.83517883  0.39430709  0.20380031     0.08600
C997        C  0.85318158  0.33728845  0.19938418     0.19500
C998        C  0.94476952  0.37401641  0.18915041    -0.55300
C999        C  0.91326553  0.33964088  0.21917627     0.08700
C1000       C  0.89876789  0.34848322  0.11617173    -0.54900
C1001       C  0.85724576  0.32448820  0.13808542     0.09200
H1002       H  0.86960857  0.46587509  0.18094517     0.13700
H1003       H  0.82736083  0.31008827  0.22216298    -0.00500
H1004       H  0.98666077  0.38115000  0.19600016     0.14100
H1005       H  0.91148987  0.33995937  0.07533255     0.13800
C1006       C  0.89300383  0.11817985  0.41254796     0.85600
C1007       C  0.93277286  0.15445558  0.38138872    -0.54600
C1008       C  0.90831757  0.19545021  0.35487725     0.08600
C1009       C  0.84648763  0.19312938  0.36034597     0.19500
C1010       C  0.86231530  0.15665483  0.44833794    -0.55300
C1011       C  0.83719974  0.19589017  0.42151848     0.08700
C1012       C  0.85400374  0.10090691  0.37199664    -0.54900
C1013       C  0.83070883  0.13712913  0.34367866     0.09200
H1014       H  0.97556569  0.15058240  0.38373174     0.13700
H1015       H  0.82580884  0.22427464  0.33820112    -0.00500
H1016       H  0.86918811  0.15933828  0.49017945     0.14100
H1017       H  0.84533414  0.05991741  0.36509076     0.13800
O1018       O  0.04590853  0.27550651  0.88744874    -0.79300
C1019       C  0.93325719  0.14894117  0.83374253     0.81700
O1020       O  0.05569825  0.18783984  0.80225545    -0.80500
O1021       O  0.87214263  0.20568877  0.73334368    -0.81900
O1022       O  0.95363230  0.33862593  0.71235949    -0.81700
O1023       O  0.05021375  0.33088956  0.82078314    -0.80400
Zn1024     Zn  0.96029652  0.25591953  0.88662184     1.55700
O1025       O  0.88453954  0.28685448  0.71588454    -0.81800
Cd1026     Cd  0.96293286  0.35061416  0.80268839     1.59700
Cd1027     Cd  0.00798134  0.23786500  0.75134189     1.59600
O1028       O  0.03083386  0.37811067  0.75485736    -0.81800
O1029       O  0.96114328  0.26941184  0.80605655    -1.92300
Cd1030     Cd  0.87965494  0.25384975  0.80177799     1.59900
O1031       O  0.05331467  0.30324739  0.71512201    -0.81700
O1032       O  0.93024024  0.17891661  0.79459148    -0.80400
C1033       C  0.05434171  0.18212023  0.85334410     0.82200
C1034       C  0.07345338  0.30473928  0.85631258     0.81800
O1035       O  0.94751920  0.16942075  0.87746447    -0.79300
C1036       C  0.91678144  0.31502254  0.68874783     0.82600
O1037       O  0.02155798  0.20648373  0.88237548    -0.79400
C1038       C  0.05816538  0.35339619  0.72058282     0.82800
C1039       C  0.90218932  0.18857801  0.69677280     0.83100
O1040       O  0.95338872  0.19716325  0.69596462    -0.81800
C1041       C  0.00830695  0.05304321  0.06496437     0.79400
N1042       N  0.02816051  0.07064909  0.01782689    -0.78900
C1043       C  0.07330893  0.05008438  0.99547663     0.81800
N1044       N  0.09941129  0.01176812  0.02198468    -0.78900
C1045       C  0.08022252  0.99322721  0.06958935     0.81900
N1046       N  0.03452780  0.01415746  0.09080552    -0.80600
C1047       C  0.18444588  0.16663183  0.00222312     0.79400
N1048       N  0.16540297  0.21227296  0.02293312    -0.78900
C1049       C  0.19063618  0.23655360  0.06259134     0.81800
N1050       N  0.23501612  0.21458440  0.08201097    -0.78900
C1051       C  0.25472166  0.16872291  0.06370475     0.81900
N1052       N  0.22906522  0.14401138  0.02340777    -0.80600
C1053       C  0.99580620  0.17509703  0.17454375     0.79400
N1054       N  0.01265332  0.15142194  0.21923451    -0.78900
C1055       C  0.05754228  0.16663766  0.24393425     0.81800
N1056       N  0.08553173  0.20765834  0.22402534    -0.78900
C1057       C  0.06946607  0.23273028  0.17919567     0.81900
N1058       N  0.02512371  0.21531181  0.15373006    -0.80600
C1059       C  0.18578540  0.99900666  0.19775409     0.79400
N1060       N  0.22859262  0.02311119  0.17476603    -0.78900
C1061       C  0.24842578  0.06755811  0.19514505     0.81800
N1062       N  0.22456479  0.08844239  0.23997335    -0.78900
C1063       C  0.18151926  0.06478878  0.26376579     0.81900
N1064       N  0.16258551  0.02007227  0.24176829    -0.80600
C1065       C  0.06950272  0.07140662  0.36153300     0.85600
C1066       C  0.04431799  0.09834552  0.31359480    -0.54600
C1067       C  0.07556826  0.13668236  0.29112530     0.08600
C1068       C  0.13004885  0.14240652  0.31917581     0.19500
C1069       C  0.12323451  0.05066616  0.34118607    -0.55300
C1070       C  0.15368368  0.08585763  0.31351352     0.08700
C1071       C  0.08007612  0.11480105  0.39783986    -0.54900
C1072       C  0.11229154  0.15191973  0.37924306     0.09200
H1073       H  0.00510850  0.08839033  0.29940443     0.13700
H1074       H  0.15620402  0.17315381  0.30240216    -0.00500
H1075       H  0.13087935  0.00911953  0.33938521     0.14100
H1076       H  0.06473370  0.11475524  0.43852284     0.13800
C1077       C  0.16974600  0.34606563  0.16147990     0.85600
C1078       C  0.13402730  0.30641807  0.19095913    -0.54600
C1079       C  0.10135621  0.27820238  0.15865667     0.08600
C1080       C  0.10820072  0.29361080  0.09928557     0.19500
C1081       C  0.20042179  0.31339154  0.12038972    -0.55300
C1082       C  0.16860706  0.28402238  0.08865577     0.08700
C1083       C  0.13270598  0.37940192  0.13075007    -0.54900
C1084       C  0.10134263  0.35406392  0.09760156     0.09200
H1085       H  0.13664829  0.29933677  0.23314703     0.13700
H1086       H  0.08199555  0.27202726  0.07215646    -0.00500
H1087       H  0.24349770  0.30949034  0.12049616     0.14100
H1088       H  0.13194767  0.42139181  0.13385840     0.13800
C1089       C  0.17924026  0.88416742  0.10579890     0.85600
C1090       C  0.14786355  0.92209351  0.07130077    -0.54600
C1091       C  0.10994259  0.95063357  0.09759314     0.08600
C1092       C  0.10828939  0.93797138  0.15802759     0.19500
C1093       C  0.20279891  0.91849034  0.14885425    -0.55300
C1094       C  0.16660514  0.94915775  0.17485442     0.08700
C1095       C  0.13905530  0.85021599  0.13320360    -0.54900
C1096       C  0.10220642  0.87695460  0.16181972     0.09200
H1097       H  0.15747122  0.92787470  0.02966955     0.13700
H1098       H  0.07796561  0.96037482  0.18103711    -0.00500
H1099       H  0.24543378  0.92359016  0.15306489     0.14100
H1100       H  0.14121889  0.80809102  0.13219501     0.13800
C1101       C  0.09128512  0.14849761  0.88435159     0.85600
C1102       C  0.06281377  0.10333757  0.91386676    -0.54600
C1103       C  0.09522941  0.07306094  0.94460101     0.08600
C1104       C  0.15477654  0.08721136  0.93619788     0.19500
C1105       C  0.12115169  0.17587438  0.92841503    -0.55300
C1106       C  0.15589639  0.14479127  0.95565748     0.08700
C1107       C  0.13412264  0.12664834  0.85055169    -0.54900
C1108       C  0.16404002  0.09033264  0.87436736     0.09200
H1109       H  0.01969643  0.10143324  0.91718683     0.13700
H1110       H  0.18284136  0.06105443  0.95686875    -0.00500
H1111       H  0.11318078  0.21594895  0.93889402     0.14100
H1112       H  0.13577463  0.13374050  0.80801810     0.13800
C1113       C  0.87664397  0.08772344  0.13956050     0.85600
C1114       C  0.92073760  0.05193631  0.11673958    -0.54600
C1115       C  0.95973241  0.07838781  0.08860080     0.08600
C1116       C  0.95089427  0.13853616  0.08779293     0.19500
C1117       C  0.90824222  0.12684633  0.17391444    -0.55300
C1118       C  0.94885176  0.15236549  0.14699007     0.08700
C1119       C  0.85768355  0.11812281  0.09284771    -0.54900
C1120       C  0.89316847  0.14743587  0.06847418     0.09200
H1121       H  0.92364895  0.01095977  0.12554420     0.13700
H1122       H  0.98177686  0.16015189  0.06485720    -0.00500
H1123       H  0.90342083  0.12877752  0.21665758     0.14100
H1124       H  0.81568182  0.12096016  0.08276327     0.13800
C1125       C  0.36481038  0.15933341  0.16371229     0.85600
C1126       C  0.33229108  0.18338592  0.11968431    -0.54600
C1127       C  0.30325389  0.14835484  0.09081588     0.08600
C1128       C  0.31353936  0.09090327  0.10856580     0.19500
C1129       C  0.32510277  0.12780779  0.19690686    -0.55300
C1130       C  0.29627059  0.09284560  0.16908712     0.08700
C1131       C  0.40020901  0.12178335  0.13638877    -0.54900
C1132       C  0.37661467  0.08507074  0.10774468     0.09200
H1133       H  0.32825589  0.22518294  0.11571096     0.13700
H1134       H  0.29217474  0.06159447  0.08490382    -0.00500
H1135       H  0.31808958  0.13516054  0.23878876     0.14100
H1136       H  0.44329680  0.12571265  0.13714635     0.13800
loop_ 
_geom_bond_atom_site_label_1 
_geom_bond_atom_site_label_2 
_geom_bond_distance 
_geom_bond_site_symmetry_2 
_ccdc_geom_bond_type 
O1           C17   1.301       .  A
O1           Zn7   2.311       .  S
C2           O18   1.297       .  A
C2           O15   1.244       .  A
C2          C369   1.495       .  S
O3           C16   1.304       .  A
O3          Cd10   2.308       .  S
O4           C22   1.273       .  A
O4          Cd13   2.005       .  S
O5           C19   1.261       .  A
O5           Cd9   2.274       .  S
O6           C17   1.261       .  A
O6           Cd9   2.220       .  S
Zn7          O18   2.356       .  S
Zn7          O20   1.912       .  S
Zn7          O12   2.110       .  S
O8           C19   1.279       .  A
O8          Cd13   2.349       .  S
Cd9          O11   1.957       .  S
Cd9          O12   1.837       .  S
Cd10         O14   2.438       .  S
Cd10         O23   2.311       .  S
Cd10         O12   2.188       .  S
O11          C21   1.279       .  A
O12         Cd13   2.002       .  S
Cd13         O15   2.346       .  S
O14          C21   1.320       .  A
C16          O20   1.244       .  A
C16         C607   1.471       .  S
C17         C947   1.486       .  S
C19         C541   1.533       .  S
C21         C785   1.462       .  S
C22          O23   1.320       .  A
C22         C905   1.435       .  S
O24          C40   1.277       .  A
O24         Zn30   2.020       .  S
C25          O41   1.248       .  A
C25          O38   1.285       .  A
C25         C940   1.508       .  S
O26          C39   1.320       .  A
O26         Cd33   2.352       .  S
O27          C45   1.264       .  A
O27         Cd36   2.169       .  S
O28          C42   1.266       .  A
O28         Cd32   2.205       .  S
O29          C40   1.254       .  A
O29         Cd32   2.250       .  S
Zn30         O41   2.010       .  S
Zn30         O43   1.805       .  S
Zn30         O35   1.860       .  S
O31          C42   1.289       .  A
O31         Cd36   2.319       .  S
Cd32         O34   1.915       .  S
Cd32         O35   1.786       .  S
Cd33         O37   2.452       .  S
Cd33         O46   2.183       .  S
Cd33         O35   2.164       .  S
O34          C44   1.283       .  A
O35         Cd36   2.148       .  S
Cd36         O38   2.348       .  S
O37          C44   1.318       .  A
C39          O43   1.261       .  A
C39         C618   1.498       .  S
C40         C576   1.501       .  S
C42         C434   1.553       .  S
C44        C1125   1.480       .  S
C45          O46   1.302       .  A
C45         C754   1.499       .  S
C47         C112   1.527       .  S
C47          N48   1.381       .  A
C47          N52   1.375       .  A
N48          C49   1.375       .  A
C49         C121   1.543       .  S
C49          N50   1.372       .  A
N50          C51   1.372   1_556  A
C51          C82   1.528       .  S
C51          N52   1.370   1_554  A
C53          C67   1.497       .  S
C53          N54   1.362   1_455  A
C53          N58   1.379   1_455  A
N54          C55   1.354   1_556  A
C55          C79   1.498       .  S
C55          N56   1.369   1_554  A
N56          C57   1.364   1_565  A
C57         C136   1.527       .  S
C57          N58   1.374   1_545  A
C59          C70   1.503       .  S
C59          N60   1.372   1_455  A
C59          N64   1.367   1_455  A
N60          C61   1.366       .  A
C61          C97   1.489       .  S
C61          N62   1.355       .  A
N62          C63   1.349       .  A
C63         C109   1.483       .  S
C63          N64   1.368       .  A
C65         C230   1.532       .  S
C65          C66   1.550       .  S
C65          C71   1.513       .  S
C65          C69   1.559       .  S
C66          H73   1.081       .  S
C66          C67   1.381       .  D
C67          C68   1.536       .  S
C68          C72   1.537       .  S
C68          C70   1.543       .  S
C68          H74   1.111       .  S
C69          H75   1.084       .  S
C69          C70   1.388       .  D
C71          H76   1.089       .  S
C71          C72   1.330       .  D
C72         C278   1.445       .  S
C77         C467   1.493       .  S
C77          C78   1.517       .  S
C77          C83   1.480       .  S
C77          C81   1.556       .  S
C78          H85   1.085       .  S
C78          C79   1.361       .  D
C79          C80   1.582       .  S
C80          C84   1.591       .  S
C80          C82   1.561       .  S
C80          H86   1.110       .  S
C81          H87   1.083       .  S
C81          C82   1.377       .  D
C83          H88   1.090       .  S
C83          C84   1.351       .  D
C84         C322   1.498       .  S
C89         C133   1.525   1_565  S
C89          N90   1.358       .  A
C89          N94   1.375       .  A
N90          C91   1.364       .  A
C91         C124   1.518       .  S
C91          N92   1.375       .  A
N92          C93   1.379       .  A
C93         C100   1.533       .  S
C93          N94   1.382       .  A
C95         C282   1.540       .  S
C95          C96   1.522       .  S
C95         C101   1.501       .  S
C95          C99   1.589       .  S
C96         H103   1.081       .  S
C96          C97   1.393       .  D
C97          C98   1.593       .  S
C98         C102   1.575       .  S
C98         C100   1.525       .  S
C98         H104   1.110       .  S
C99         H105   1.083       .  S
C99         C100   1.385       .  D
C101        H106   1.105       .  S
C101        C102   1.316       .  D
C102        C708   1.503       .  S
C107        C236   1.517       .  S
C107        C108   1.531       .  S
C107        C113   1.497       .  S
C107        C111   1.563       .  S
C108        H115   1.087       .  S
C108        C109   1.369       .  D
C109        C110   1.566       .  S
C110        C114   1.562       .  S
C110        C112   1.560       .  S
C110        H116   1.110       .  S
C111        H117   1.080       .  S
C111        C112   1.394       .  D
C113        H118   1.093       .  S
C113        C114   1.319       .  D
C114        C705   1.489       .  S
C119        C342   1.493       .  S
C119        C120   1.556       .  S
C119        C125   1.484       .  S
C119        C123   1.547       .  S
C120        H127   1.083       .  S
C120        C121   1.373       .  D
C121        C122   1.565       .  S
C122        C126   1.601       .  S
C122        C124   1.564       .  S
C122        H128   1.110       .  S
C123        H129   1.087       .  S
C123        C124   1.375       .  D
C125        H130   1.087       .  S
C125        C126   1.336       .  D
C126        C209   1.467       .  S
C131        C485   1.547       .  S
C131        C132   1.553       .  S
C131        C137   1.502       .  S
C131        C135   1.567       .  S
C132        H139   1.085       .  S
C132        C133   1.409       .  D
C133        C134   1.591       .  S
C134        C138   1.579       .  S
C134        C136   1.534       .  S
C134        H140   1.110       .  S
C135        H141   1.085       .  S
C135        C136   1.374       .  D
C137        H142   1.098       .  S
C137        C138   1.328       .  D
C138       C1019   1.493       .  S
O143        C159   1.293       .  A
O143       Zn149   2.218       .  S
C144        O160   1.298       .  A
C144        O157   1.256       .  A
C144        C583   1.510       .  S
O145        C158   1.300       .  A
O145       Cd152   2.205       .  S
O146        C164   1.285       .  A
O146       Cd155   1.899       .  S
O147        C161   1.285       .  A
O147       Cd151   2.314       .  S
O148        C159   1.259       .  A
O148       Cd151   2.317       .  S
Zn149       O160   2.190       .  S
Zn149       O162   1.800       .  S
Zn149       O154   1.971       .  S
O150        C161   1.257       .  A
O150       Cd155   2.162       .  S
Cd151       O153   2.143       .  S
Cd151       O154   2.069       .  S
Cd152       O156   2.208       .  S
Cd152       O165   2.403       .  S
Cd152       O154   2.054       .  S
O153        C163   1.263       .  A
O154       Cd155   1.798       .  S
Cd155       O157   2.176       .  S
O156        C163   1.300       .  A
C158        O162   1.234       .  A
C158        C630   1.485       .  S
C159        C362   1.527       .  S
C161        C982   1.529       .  S
C163        C874   1.492       .  S
C164        O165   1.328       .  A
C164       C1077   1.495       .  S
O166        C182   1.286       .  A
O166       Zn172   2.149       .  S
C167        O183   1.252       .  A
C167        O180   1.284       .  A
C167       C1072   1.477       .  S
O168        C181   1.329       .  A
O168       Cd175   2.348       .  S
O169        C187   1.262       .  A
O169       Cd178   2.175       .  S
O170        C184   1.270       .  A
O170       Cd174   2.201       .  S
O171        C182   1.254       .  A
O171       Cd174   2.246       .  S
Zn172       O183   2.134       .  S
Zn172       O185   1.879       .  S
Zn172       O177   1.921       .  S
O173        C184   1.289       .  A
O173       Cd178   2.314       .  S
Cd174       O176   1.941       .  S
Cd174       O177   1.814       .  S
Cd175       O179   2.479       .  S
Cd175       O188   2.167       .  S
Cd175       O177   2.131       .  S
O176        C186   1.285       .  A
O177       Cd178   2.178       .  S
Cd178       O180   2.319       .  S
O179        C186   1.319       .  A
C181        O185   1.262       .  A
C181        C441   1.468       .  S
C182        C766   1.519       .  S
C184        C869   1.511       .  S
C186        C534   1.505       .  S
C187        O188   1.297       .  A
C187        C989   1.464       .  S
O189        C205   1.286       .  A
O189       Zn195   2.014       .  S
C190        O206   1.287       .  A
C190        O203   1.261       .  A
C190        C898   1.516       .  S
O191        C204   1.302       .  A
O191       Cd198   2.200       .  S
O192        C210   1.276       .  A
O192       Cd201   2.003       .  S
O193        C207   1.287       .  A
O193       Cd197   2.336       .  S
O194        C205   1.265       .  A
O194       Cd197   2.311       .  S
Zn195       O206   2.031       .  S
Zn195       O208   1.795       .  S
Zn195       O200   1.871       .  S
O196        C207   1.269       .  A
O196       Cd201   2.338       .  S
Cd197       O199   2.148       .  S
Cd197       O200   2.049       .  S
Cd198       O202   2.234       .  S
Cd198       O211   2.318       .  S
Cd198       O200   1.990       .  S
O199        C209   1.262       .  A
O200       Cd201   1.947       .  S
Cd201       O203   2.322       .  S
O202        C209   1.306       .  A
C204        O208   1.238       .  A
C204        C393   1.459       .  S
C205        C797   1.461       .  S
C207        C648   1.541       .  S
C210        O211   1.322       .  A
C210        C504   1.484       .  S
O212        C228   1.295       .  A
O212       Zn218   2.087       .  S
C213        O229   1.294       .  A
C213        O226   1.249       .  A
C213        C410   1.493       .  S
O214        C227   1.292       .  A
O214       Cd221   2.184       .  S
O215        C233   1.274       .  A
O215       Cd224   1.947       .  S
O216        C230   1.260       .  A
O216       Cd220   2.220       .  S
O217        C228   1.271       .  A
O217       Cd220   2.169       .  S
Zn218       O229   2.134   1_556  S
Zn218       O231   1.868   1_556  S
Zn218       O223   2.034       .  S
O219        C230   1.276       .  A
O219       Cd224   2.295   1_556  S
Cd220       O222   1.923       .  S
Cd220       O223   1.782       .  S
Cd221       O225   2.436   1_554  S
Cd221       O234   2.319       .  S
Cd221       O223   2.198   1_554  S
O222        C232   1.282       .  A
O223       Cd224   1.956   1_556  S
Cd224       O226   2.236       .  S
O225        C232   1.315       .  A
C227        O231   1.236       .  A
C227        C637   1.450       .  S
C228        C511   1.497       .  S
C232        C886   1.487       .  S
C233        O234   1.319       .  A
C233       C1089   1.476       .  S
O235        C251   1.292       .  A
O235       Zn241   2.232   1_455  S
C236        O252   1.282       .  A
C236        O249   1.279       .  A
O237        C250   1.303       .  A
O237       Cd244   2.226   1_556  S
O238        C256   1.270       .  A
O238       Cd247   2.198   1_554  S
O239        C253   1.259       .  A
O239       Cd243   2.193   1_655  S
O240        C251   1.254       .  A
O240       Cd243   2.190   1_556  S
Zn241       O252   2.214       .  S
Zn241       O254   1.979   1_655  S
Zn241       O246   1.996       .  S
O242        C253   1.281       .  A
O242       Cd247   2.278   1_554  S
Cd243       O245   1.930       .  S
Cd243       O246   1.791   1_454  S
Cd244       O248   2.465       .  S
Cd244       O257   2.184   1_455  S
Cd244       O246   2.112   1_454  S
O245        C255   1.282       .  A
O246       Cd247   2.095       .  S
Cd247       O249   2.291       .  S
O248        C255   1.325       .  A
C250        O254   1.255       .  A
C250        C893   1.465       .  S
C251        C565   1.486       .  S
C253        C994   1.527       .  S
C255       C1084   1.465       .  S
C256        O257   1.295       .  A
C256        C672   1.497       .  S
O258        C274   1.297       .  A
O258       Zn264   2.160   1_565  S
C259        O275   1.299       .  A
C259        O272   1.265       .  A
C259        C773   1.496       .  S
O260        C273   1.282       .  A
O260       Cd267   2.140       .  S
O261        C279   1.282       .  A
O261       Cd270   1.946       .  S
O262        C276   1.275       .  A
O262       Cd266   2.233   1_545  S
O263        C274   1.251       .  A
O263       Cd266   2.259       .  S
Zn264       O275   2.115       .  S
Zn264       O277   1.793   1_545  S
Zn264       O269   2.005       .  S
O265        C276   1.251       .  A
O265       Cd270   2.217       .  S
Cd266       O268   1.990       .  S
Cd266       O269   1.987   1_565  S
Cd267       O271   2.308       .  S
Cd267       O280   2.456   1_565  S
Cd267       O269   2.192   1_565  S
O268        C278   1.274       .  A
O269       Cd270   1.818       .  S
Cd270       O272   2.152       .  S
O271        C278   1.319       .  A
C273        O277   1.230       .  A
C273        C386   1.463       .  S
C274        C910   1.504       .  S
C276       C1108   1.468       .  S
C279        O280   1.313       .  A
C279        C546   1.498       .  S
O281        C297   1.301       .  A
O281       Zn287   2.292       .  S
C282        O298   1.291       .  A
C282        O295   1.270       .  A
O283        C296   1.295       .  A
O283       Cd290   2.180       .  S
O284        C302   1.264       .  A
O284       Cd293   2.166       .  S
O285        C299   1.255       .  A
O285       Cd289   2.216       .  S
O286        C297   1.269       .  A
O286       Cd289   2.214       .  S
Zn287       O298   2.276       .  S
Zn287       O300   1.955       .  S
Zn287       O292   2.019       .  S
O288        C299   1.289       .  A
O288       Cd293   2.345       .  S
Cd289       O291   1.943       .  S
Cd289       O292   1.803       .  S
Cd290       O294   2.498       .  S
Cd290       O303   2.251       .  S
Cd290       O292   2.131       .  S
O291        C301   1.281       .  A
O292       Cd293   2.113       .  S
Cd293       O295   2.313       .  S
O294        C301   1.315       .  A
C296        O300   1.254       .  A
C296        C832   1.480       .  S
C297        C935   1.532       .  S
C299        C422   1.539       .  S
C301        C600   1.498       .  S
C302        O303   1.312       .  A
C302        C790   1.510       .  S
O304        C320   1.288       .  A
O304       Zn310   2.195   1_455  S
C305        O321   1.284       .  A
C305        O318   1.277       .  A
C305        C928   1.518       .  S
O306        C319   1.306       .  A
O306       Cd313   2.226       .  S
O307        C325   1.266       .  A
O307       Cd316   2.185       .  S
O308        C322   1.266       .  A
O308       Cd312   2.177   1_655  S
O309        C320   1.259       .  A
O309       Cd312   2.188       .  S
Zn310       O321   2.207       .  S
Zn310       O323   2.045   1_655  S
Zn310       O315   1.990       .  S
O311        C322   1.279       .  A
O311       Cd316   2.252       .  S
Cd312       O314   1.923       .  S
Cd312       O315   1.845   1_455  S
Cd313       O317   2.431       .  S
Cd313       O326   2.141   1_455  S
Cd313       O315   2.070   1_455  S
O314        C324   1.283       .  A
O315       Cd316   2.113       .  S
Cd316       O318   2.294       .  S
O317        C324   1.326       .  A
C319        O323   1.264       .  A
C319        C881   1.482       .  S
C320        C398   1.513       .  S
C324       C1096   1.478       .  S
C325        O326   1.291       .  A
C325        C679   1.460       .  S
O327        C343   1.300       .  A
O327       Zn333   2.147   1_556  S
C328        O344   1.298       .  A
C328        O341   1.245       .  A
C328        C660   1.518       .  S
O329        C342   1.295       .  A
O329       Cd336   2.218   1_556  S
O330        C348   1.274       .  A
O330       Cd339   2.000   1_565  S
O331        C345   1.260       .  A
O331       Cd335   2.234   1_554  S
O332        C343   1.273       .  A
O332       Cd335   2.172       .  S
Zn333       O344   2.238   1_545  S
Zn333       O346   1.835   1_544  S
Zn333       O338   1.992       .  S
O334        C345   1.272       .  A
O334       Cd339   2.263       .  S
Cd335       O337   1.921       .  S
Cd335       O338   1.808   1_556  S
Cd336       O340   2.440   1_564  S
Cd336       O349   2.344       .  S
Cd336       O338   2.162   1_565  S
O337        C347   1.283       .  A
O338       Cd339   1.975       .  S
Cd339       O341   2.323   1_545  S
O340        C347   1.320       .  A
C342        O346   1.236       .  A
C343        C821   1.507       .  S
C345       C1132   1.493       .  S
C347        C553   1.462       .  S
C348        O349   1.330       .  A
C348        C417   1.442       .  S
C350        C400   1.511       .  S
C350        N351   1.377       .  A
C350        N355   1.360       .  A
N351        C352   1.380       .  A
C352        C439   1.525   1_565  S
C352        N353   1.366       .  A
N353        C354   1.367       .  A
C354        C415   1.493       .  S
C354        N355   1.356       .  A
C356        C427   1.505       .  S
C356        N357   1.368       .  A
C356        N361   1.368       .  A
N357        C358   1.365       .  A
C358        C412   1.504       .  S
C358        N359   1.367       .  A
N359        C360   1.366       .  A
C360        C367   1.509       .  S
C360        N361   1.368       .  A
C362        C363   1.548       .  S
C362        C368   1.504       .  S
C362        C366   1.563       .  S
C363        H370   1.084       .  S
C363        C364   1.407       .  D
C364        C382   1.528       .  S
C364        C365   1.605       .  S
C365        C369   1.573       .  S
C365        C367   1.526       .  S
C365        H371   1.110       .  S
C366        H372   1.079       .  S
C366        C367   1.369       .  D
C368        H373   1.098       .  S
C368        C369   1.311       .  D
C374        C424   1.502       .  S
C374        N375   1.367       .  A
C374        N379   1.366       .  A
N375        C376   1.369       .  A
C376        C436   1.518   1_565  S
C376        N377   1.368       .  A
N377        C378   1.375       .  A
C378        C388   1.508       .  S
C378        N379   1.362       .  A
C380        C391   1.528       .  S
C380        N381   1.378       .  A
C380        N385   1.375       .  A
N381        C382   1.378       .  A
C382        N383   1.370       .  A
N383        C384   1.371       .  A
C384        C403   1.528       .  S
C384        N385   1.362       .  A
C386        C387   1.543       .  S
C386        C392   1.478       .  S
C386        C390   1.544       .  S
C387        H394   1.086       .  S
C387        C388   1.365       .  D
C388        C389   1.563       .  S
C389        C393   1.603       .  S
C389        C391   1.561       .  S
C389        H395   1.110       .  S
C390        H396   1.081       .  S
C390        C391   1.369       .  D
C392        H397   1.088       .  S
C392        C393   1.327       .  D
C398        C399   1.547       .  S
C398        C404   1.485       .  S
C398        C402   1.537       .  S
C399        H406   1.085       .  S
C399        C400   1.402       .  D
C400        C401   1.580       .  S
C401        C405   1.600       .  S
C401        C403   1.569       .  S
C401        H407   1.110       .  S
C402        H408   1.087       .  S
C402        C403   1.367       .  D
C404        H409   1.095       .  S
C404        C405   1.324       .  D
C405        C725   1.522       .  S
C410        C411   1.541       .  S
C410        C416   1.487       .  S
C410        C414   1.555       .  S
C411        H418   1.086       .  S
C411        C412   1.371       .  D
C412        C413   1.551       .  S
C413        C417   1.552       .  S
C413        C415   1.551       .  S
C413        H419   1.111       .  S
C414        H420   1.085       .  S
C414        C415   1.391       .  D
C416        H421   1.092       .  S
C416        C417   1.316       .  D
C422        C423   1.544       .  S
C422        C428   1.499       .  S
C422        C426   1.554       .  S
C423        H430   1.082       .  S
C423        C424   1.378       .  D
C424        C425   1.551       .  S
C425        C429   1.551       .  S
C425        C427   1.561       .  S
C425        H431   1.111       .  S
C426        H432   1.083       .  S
C426        C427   1.390       .  D
C428        H433   1.087       .  S
C428        C429   1.330       .  D
C429        C461   1.473       .  S
C434        C435   1.543       .  S
C434        C440   1.506       .  S
C434        C438   1.570       .  S
C435        H442   1.079       .  S
C435        C436   1.373       .  D
C436        C437   1.555       .  S
C437        C441   1.563       .  S
C437        C439   1.560       .  S
C437        H443   1.111       .  S
C438        H444   1.084       .  S
C438        C439   1.405       .  D
C440        H445   1.091       .  S
C440        C441   1.317       .  D
O446        C462   1.260       .  A
O446       Zn452   2.207       .  S
C447        O463   1.264       .  A
C447        O460   1.292       .  A
C447        C667   1.521       .  S
O448        C461   1.321       .  A
O448       Cd455   2.402   1_565  S
O449        C467   1.261       .  A
O449       Cd458   2.142   1_565  S
O450        C464   1.263       .  A
O450       Cd454   2.283       .  S
O451        C462   1.283       .  A
O451       Cd454   2.283       .  S
Zn452       O463   2.204   1_545  S
Zn452       O465   1.902   1_545  S
Zn452       O457   1.786       .  S
O453        C464   1.285       .  A
O453       Cd458   2.322       .  S
Cd454       O456   2.201       .  S
Cd454       O457   2.151       .  S
Cd455       O459   2.217       .  S
Cd455       O468   2.211   1_545  S
Cd455       O457   2.112       .  S
O456        C466   1.266       .  A
O457       Cd458   2.129       .  S
Cd458       O460   2.342   1_545  S
O459        C466   1.310       .  A
C461        O465   1.289       .  A
C462        C761   1.500       .  S
C464       C1113   1.517       .  S
C466       C1013   1.476       .  S
C467        O468   1.297       .  A
O469        C485   1.284       .  A
O469       Zn475   2.270       .  S
C470        O486   1.257       .  A
C470        O483   1.286       .  A
C470       C1001   1.507       .  S
O471        C484   1.335       .  A
O471       Cd478   2.370       .  S
O472        C490   1.256       .  A
O472       Cd481   2.128   1_554  S
O473        C487   1.259       .  A
O473       Cd477   2.160       .  S
O474        C485   1.256       .  A
O474       Cd477   2.253       .  S
Zn475       O486   2.271   1_556  S
Zn475       O488   1.881   1_556  S
Zn475       O480   1.865       .  S
O476        C487   1.287       .  A
O476       Cd481   2.296       .  S
Cd477       O479   1.939       .  S
Cd477       O480   1.831       .  S
Cd478       O482   2.505   1_554  S
Cd478       O491   2.279       .  S
Cd478       O480   2.160   1_554  S
O479        C489   1.282       .  A
O480       Cd481   2.169       .  S
Cd481       O483   2.362   1_556  S
O482        C489   1.318       .  A
C484        O488   1.272       .  A
C484       C1120   1.463       .  S
C487        C522   1.515       .  S
C489        C814   1.493       .  S
C490        O491   1.309       .  A
C490        C625   1.490       .  S
C492        C524   1.498       .  S
C492        N493   1.364       .  A
C492        N497   1.352       .  A
N493        C494   1.366   1_556  A
C494        C581   1.519       .  S
C494        N495   1.377   1_554  A
N495        C496   1.376       .  A
C496        C506   1.510       .  S
C496        N497   1.366       .  A
C498        C509   1.502       .  S
C498        N499   1.368       .  A
C498        N503   1.365       .  A
N499        C500   1.374       .  A
C500        C560   1.519       .  S
C500        N501   1.374       .  A
N501        C502   1.376       .  A
C502        C539   1.518       .  S
C502        N503   1.350       .  A
C504        C505   1.540       .  S
C504        C510   1.487       .  S
C504        C508   1.511       .  S
C505        H512   1.084       .  S
C505        C506   1.367       .  D
C506        C507   1.547       .  S
C507        C511   1.595       .  S
C507        C509   1.588       .  S
C507        H513   1.110       .  S
C508        H514   1.086       .  S
C508        C509   1.375       .  D
C510        H515   1.091       .  S
C510        C511   1.348       .  D
C516        C527   1.531       .  S
C516        N517   1.393       .  A
C516        N521   1.369       .  A
N517        C518   1.385       .  A
C518        C536   1.547       .  S
C518        N519   1.364       .  A
N519        C520   1.359       .  A
C520        C551   1.505       .  S
C520        N521   1.362       .  A
C522        C523   1.527       .  S
C522        C528   1.507       .  S
C522        C526   1.570       .  S
C523        H530   1.087       .  S
C523        C524   1.362       .  D
C524        C525   1.563       .  S
C525        C529   1.568       .  S
C525        C527   1.553       .  S
C525        H531   1.110       .  S
C526        H532   1.084       .  S
C526        C527   1.402       .  D
C528        H533   1.090       .  S
C528        C529   1.319       .  D
C529        C704   1.461       .  S
C534        C535   1.537       .  S
C534        C540   1.487       .  S
C534        C538   1.531       .  S
C535        H542   1.086       .  S
C535        C536   1.386       .  D
C536        C537   1.586       .  S
C537        C541   1.620       .  S
C537        C539   1.589       .  S
C537        H543   1.110       .  S
C538        H544   1.087       .  S
C538        C539   1.364       .  D
C540        H545   1.087       .  S
C540        C541   1.339       .  D
C546        C547   1.539       .  S
C546        C552   1.502       .  S
C546        C550   1.543       .  S
C547        H554   1.087       .  S
C547        C548   1.373       .  D
C548        C572   1.485       .  S
C548        C549   1.542       .  S
C549        C553   1.560       .  S
C549        C551   1.556       .  S
C549        H555   1.110       .  S
C550        H556   1.086       .  S
C550        C551   1.378       .  D
C552        H557   1.086       .  S
C552        C553   1.341       .  D
C558       C1034   1.524       .  S
C558        C559   1.582       .  S
C558        C564   1.509       .  S
C558        C562   1.519       .  S
C559        H566   1.083       .  S
C559        C560   1.382       .  D
C560        C561   1.523       .  S
C561        C565   1.558       .  S
C561        C563   1.578       .  S
C561        H567   1.110       .  S
C562        H568   1.081       .  S
C562        C563   1.385       .  D
C563        C574   1.472       .  S
C564        H569   1.094       .  S
C564        C565   1.328       .  D
C570        C578   1.478   1_556  S
C570        N571   1.368       .  A
C570        N575   1.360       .  A
N571        C572   1.361       .  A
C572        N573   1.353       .  A
N573        C574   1.355       .  A
C574        N575   1.357       .  A
C576        C577   1.520       .  S
C576        C582   1.518       .  S
C576        C580   1.565       .  S
C577        H584   1.086       .  S
C577        C578   1.394       .  D
C578        C579   1.603       .  S
C579        C583   1.584       .  S
C579        C581   1.522       .  S
C579        H585   1.110       .  S
C580        H586   1.078       .  S
C580        C581   1.372       .  D
C582        H587   1.096       .  S
C582        C583   1.317       .  D
C588        C674   1.499       .  S
C588        N589   1.368       .  A
C588        N593   1.364       .  A
N589        C590   1.360       .  A
C590        C620   1.511       .  S
C590        N591   1.375       .  A
N591        C592   1.368       .  A
C592        C602   1.515       .  S
C592        N593   1.368       .  A
C594        C665   1.507       .  S
C594        N595   1.373       .  A
C594        N599   1.362       .  A
N595        C596   1.372       .  A
C596        C635   1.530       .  S
C596        N597   1.378       .  A
N597        C598   1.374       .  A
C598        C605   1.518       .  S
C598        N599   1.364       .  A
C600        C601   1.543       .  S
C600        C606   1.511       .  S
C600        C604   1.554       .  S
C601        H608   1.082       .  S
C601        C602   1.369       .  D
C602        C603   1.557       .  S
C603        C607   1.588       .  S
C603        C605   1.552       .  S
C603        H609   1.110       .  S
C604        H610   1.085       .  S
C604        C605   1.380       .  D
C606        H611   1.087       .  S
C606        C607   1.329       .  D
C612        C650   1.528       .  S
C612        N613   1.387   1_556  A
C612        N617   1.372   1_556  A
N613        C614   1.379       .  A
C614        C623   1.542       .  S
C614        N615   1.367       .  A
N615        C616   1.365       .  A
C616        C632   1.515       .  S
C616        N617   1.367       .  A
C618        C619   1.536       .  S
C618        C624   1.505       .  S
C618        C622   1.552       .  S
C619        H626   1.085       .  S
C619        C620   1.362       .  D
C620        C621   1.570       .  S
C621        C625   1.603       .  S
C621        C623   1.564       .  S
C621        H627   1.110       .  S
C622        H628   1.081       .  S
C622        C623   1.374       .  D
C624        H629   1.086       .  S
C624        C625   1.348       .  D
C630        C631   1.552       .  S
C630        C636   1.480       .  S
C630        C634   1.562       .  S
C631        H638   1.086       .  S
C631        C632   1.374       .  D
C632        C633   1.557       .  S
C633        C637   1.590       .  S
C633        C635   1.557       .  S
C633        H639   1.110       .  S
C634        H640   1.082       .  S
C634        C635   1.373       .  D
C636        H641   1.087       .  S
C636        C637   1.329       .  D
C642        C662   1.519       .  S
C642        N643   1.370       .  A
C642        N647   1.370       .  A
N643        C644   1.365       .  A
C644        C653   1.501   1_554  S
C644        N645   1.358       .  A
N645        C646   1.365       .  A
C646        C677   1.500       .  S
C646        N647   1.373       .  A
C648        C649   1.588       .  S
C648        C654   1.515       .  S
C648        C652   1.532       .  S
C649        H656   1.082       .  S
C649        C650   1.384       .  D
C650        C651   1.518       .  S
C651        C655   1.571       .  S
C651        C653   1.600       .  S
C651        H657   1.110       .  S
C652        H658   1.085       .  S
C652        C653   1.394       .  D
C654        H659   1.093       .  S
C654        C655   1.318       .  D
C655        C702   1.503       .  S
C660        C661   1.551       .  S
C660        C666   1.505       .  S
C660        C664   1.546       .  S
C661        H668   1.076       .  S
C661        C662   1.362       .  D
C662        C663   1.532       .  S
C663        C667   1.597       .  S
C663        C665   1.605       .  S
C663        H669   1.110       .  S
C664        H670   1.085       .  S
C664        C665   1.403       .  D
C666        H671   1.096       .  S
C666        C667   1.324       .  D
C672        C673   1.531       .  S
C672        C678   1.502       .  S
C672        C676   1.549       .  S
C673        H680   1.081       .  S
C673        C674   1.366       .  D
C674        C675   1.554       .  S
C675        C679   1.568       .  S
C675        C677   1.543       .  S
C675        H681   1.110       .  S
C676        H682   1.082       .  S
C676        C677   1.375       .  D
C678        H683   1.087       .  S
C678        C679   1.343       .  D
O684        C700   1.241       .  A
O684       Zn690   2.142       .  S
C685        O701   1.285       .  A
C685        O698   1.251       .  A
C685        C839   1.480       .  S
O686        C699   1.316       .  A
O686       Cd693   2.294       .  S
O687        C705   1.281       .  A
O687       Cd696   1.985       .  S
O688        C702   1.298       .  A
O688       Cd692   2.399       .  S
O689        C700   1.292       .  A
O689       Cd692   2.388       .  S
Zn690       O701   2.112       .  S
Zn690       O703   1.872       .  S
Zn690       O695   1.916       .  S
O691        C702   1.255       .  A
O691       Cd696   2.194       .  S
Cd692       O694   2.102       .  S
Cd692       O695   2.180       .  S
Cd693       O697   2.236       .  S
Cd693       O706   2.489       .  S
Cd693       O695   2.134       .  S
O694        C704   1.254       .  A
O695       Cd696   1.815       .  S
Cd696       O698   2.224       .  S
O697        C704   1.305       .  A
C699        O703   1.264       .  A
C699        C965   1.446       .  S
C700        C778   1.508       .  S
C705        O706   1.324       .  A
O707        C723   1.288       .  A
O707       Zn713   2.262   1_545  S
C708        O724   1.298       .  A
C708        O721   1.260       .  A
O709        C722   1.298       .  A
O709       Cd716   2.242   1_545  S
O710        C728   1.280       .  A
O710       Cd719   1.957   1_455  S
O711        C725   1.286       .  A
O711       Cd715   2.296   1_455  S
O712        C723   1.275       .  A
O712       Cd715   2.302   1_545  S
Zn713       O724   2.296       .  S
Zn713       O726   1.963   1_565  S
Zn713       O718   2.015       .  S
O714        C725   1.257       .  A
O714       Cd719   2.237   1_455  S
Cd715       O717   2.203   1_665  S
Cd715       O718   2.105       .  S
Cd716       O720   2.156   1_665  S
Cd716       O729   2.464   1_655  S
Cd716       O718   2.120       .  S
O717        C727   1.268       .  A
O718       Cd719   1.797       .  S
Cd719       O721   2.241       .  S
O720        C727   1.298       .  A
C722        O726   1.254       .  A
C722        C802   1.500       .  S
C723       C1006   1.530       .  S
C727       C1065   1.488       .  S
C728        O729   1.324       .  A
C728        C917   1.467       .  S
C730        C816   1.515       .  S
C730        N731   1.379       .  A
C730        N735   1.380       .  A
N731        C732   1.363       .  A
C732        C804   1.519       .  S
C732        N733   1.354       .  A
N733        C734   1.363       .  A
C734        C795   1.519   1_545  S
C734        N735   1.374       .  A
C736        C768   1.484       .  S
C736        N737   1.374       .  A
C736        N741   1.362       .  A
N737        C738   1.368       .  A
C738        C819   1.508       .  S
C738        N739   1.364       .  A
N739        C740   1.357       .  A
C740        C780   1.486       .  S
C740        N741   1.351       .  A
C742        C756   1.508       .  S
C742        N743   1.354       .  A
C742        N747   1.370       .  A
N743        C744   1.366   1_545  A
C744        C792   1.511       .  S
C744        N745   1.381   1_565  A
N745        C746   1.379       .  A
C746        C771   1.533       .  S
C746        N747   1.366       .  A
C748        C759   1.534       .  S
C748        N749   1.371       .  A
C748        N753   1.367       .  A
N749        C750   1.382       .  A
C750        C807   1.521       .  S
C750        N751   1.375       .  A
N751        C752   1.371       .  A
C752        C783   1.521       .  S
C752        N753   1.367       .  A
C754        C755   1.514       .  S
C754        C760   1.466       .  S
C754        C758   1.546       .  S
C755        H762   1.083       .  S
C755        C756   1.367       .  D
C756        C757   1.585       .  S
C757        C761   1.598       .  S
C757        C759   1.577       .  S
C757        H763   1.110       .  S
C758        H764   1.084       .  S
C758        C759   1.382       .  D
C760        H765   1.087       .  S
C760        C761   1.336       .  D
C766        C767   1.532       .  S
C766        C772   1.507       .  S
C766        C770   1.575       .  S
C767        H774   1.086       .  S
C767        C768   1.401       .  D
C768        C769   1.582       .  S
C769        C773   1.582       .  S
C769        C771   1.531       .  S
C769        H775   1.110       .  S
C770        H776   1.086       .  S
C770        C771   1.380       .  D
C772        H777   1.097       .  S
C772        C773   1.324       .  D
C778        C779   1.533       .  S
C778        C784   1.486       .  S
C778        C782   1.575       .  S
C779        H786   1.087       .  S
C779        C780   1.365       .  D
C780        C781   1.543       .  S
C781        C785   1.553       .  S
C781        C783   1.564       .  S
C781        H787   1.110       .  S
C782        H788   1.085       .  S
C782        C783   1.402       .  D
C784        H789   1.095       .  S
C784        C785   1.321       .  D
C790        C791   1.547       .  S
C790        C796   1.466       .  S
C790        C794   1.527       .  S
C791        H798   1.086       .  S
C791        C792   1.382       .  D
C792        C793   1.555       .  S
C793        C797   1.581       .  S
C793        C795   1.580       .  S
C793        H799   1.110       .  S
C794        H800   1.085       .  S
C794        C795   1.383       .  D
C796        H801   1.091       .  S
C796        C797   1.330       .  D
C802        C803   1.552       .  S
C802        C808   1.495       .  S
C802        C806   1.552       .  S
C803        H810   1.087       .  S
C803        C804   1.377       .  D
C804        C805   1.557       .  S
C805        C809   1.590       .  S
C805        C807   1.555       .  S
C805        H811   1.110       .  S
C806        H812   1.083       .  S
C806        C807   1.367       .  D
C808        H813   1.087       .  S
C808        C809   1.342       .  D
C809       C1039   1.467       .  S
C814        C815   1.549       .  S
C814        C820   1.495       .  S
C814        C818   1.516       .  S
C815        H822   1.087       .  S
C815        C816   1.366       .  D
C816        C817   1.546       .  S
C817        C821   1.598       .  S
C817        C819   1.593       .  S
C817        H823   1.110       .  S
C818        H824   1.086       .  S
C818        C819   1.382       .  D
C820        H825   1.091       .  S
C820        C821   1.341       .  D
C826        C834   1.518   1_455  S
C826        N827   1.379       .  A
C826        N831   1.364       .  A
N827        C828   1.383       .  A
C828        C891   1.509       .  S
C828        N829   1.363       .  A
N829        C830   1.353       .  A
C830        C912   1.489       .  S
C830        N831   1.352       .  A
C832        C833   1.524       .  S
C832        C838   1.462       .  S
C832        C836   1.553       .  S
C833        H840   1.084       .  S
C833        C834   1.378       .  D
C834        C835   1.580       .  S
C835        C839   1.600       .  S
C835        C837   1.561       .  S
C835        H841   1.110       .  S
C836        H842   1.086       .  S
C836        C837   1.369       .  D
C837        C854   1.522       .  S
C838        H843   1.092       .  S
C838        C839   1.334       .  D
C844        C876   1.511       .  S
C844        N845   1.372       .  A
C844        N849   1.368       .  A
N845        C846   1.363       .  A
C846        C900   1.508       .  S
C846        N847   1.360       .  A
N847        C848   1.369       .  A
C848        C915   1.504       .  S
C848        N849   1.370       .  A
C850        C879   1.525       .  S
C850        N851   1.375       .  A
C850        N855   1.369       .  A
N851        C852   1.370       .  A
C852        C867   1.522       .  S
C852        N853   1.373       .  A
N853        C854   1.367   1_455  A
C854        N855   1.375   1_655  A
C856        C864   1.518       .  S
C856        N857   1.366       .  A
C856        N861   1.373       .  A
N857        C858   1.353       .  A
C858        C888   1.495       .  S
C858        N859   1.359       .  A
N859        C860   1.362       .  A
C860        C903   1.501       .  S
C860        N861   1.380       .  A
C862       C1038   1.510       .  S
C862        C863   1.519       .  S
C862        C868   1.482       .  S
C862        C866   1.550       .  S
C863        H870   1.085       .  S
C863        C864   1.382       .  D
C864        C865   1.594       .  S
C865        C869   1.601       .  S
C865        C867   1.555       .  S
C865        H871   1.110       .  S
C866        H872   1.084       .  S
C866        C867   1.372       .  D
C868        H873   1.091       .  S
C868        C869   1.344       .  D
C874        C875   1.539       .  S
C874        C880   1.497       .  S
C874        C878   1.545       .  S
C875        H882   1.085       .  S
C875        C876   1.368       .  D
C876        C877   1.564       .  S
C877        C881   1.596       .  S
C877        C879   1.566       .  S
C877        H883   1.110       .  S
C878        H884   1.083       .  S
C878        C879   1.369       .  D
C880        H885   1.087       .  S
C880        C881   1.340       .  D
C886        C887   1.538       .  S
C886        C892   1.505       .  S
C886        C890   1.545       .  S
C887        H894   1.085       .  S
C887        C888   1.366       .  D
C888        C889   1.556       .  S
C889        C893   1.577       .  S
C889        C891   1.548       .  S
C889        H895   1.110       .  S
C890        H896   1.085       .  S
C890        C891   1.379       .  D
C892        H897   1.086       .  S
C892        C893   1.332       .  D
C898        C899   1.551       .  S
C898        C904   1.491       .  S
C898        C902   1.558       .  S
C899        H906   1.085       .  S
C899        C900   1.380       .  D
C900        C901   1.551       .  S
C901        C905   1.542       .  S
C901        C903   1.542       .  S
C901        H907   1.111       .  S
C902        H908   1.085       .  S
C902        C903   1.390       .  D
C904        H909   1.091       .  S
C904        C905   1.327       .  D
C910        C911   1.541       .  S
C910        C916   1.484       .  S
C910        C914   1.541       .  S
C911        H918   1.086       .  S
C911        C912   1.395       .  D
C912        C913   1.579       .  S
C913        C917   1.558       .  S
C913        C915   1.539       .  S
C913        H919   1.110       .  S
C914        H920   1.076       .  S
C914        C915   1.365       .  D
C916        H921   1.095       .  S
C916        C917   1.317       .  D
C922        C996   1.524       .  S
C922        N923   1.367       .  A
C922        N927   1.375       .  A
N923        C924   1.364       .  A
C924        C933   1.508       .  S
C924        N925   1.358       .  A
N925        C926   1.369       .  A
C926        C942   1.508       .  S
C926        N927   1.378       .  A
C928        C929   1.581       .  S
C928        C934   1.515       .  S
C928        C932   1.523       .  S
C929        H936   1.086       .  S
C929        C930   1.378       .  D
C930        C972   1.539       .  S
C930        C931   1.535       .  S
C931        C935   1.602       .  S
C931        C933   1.616       .  S
C931        H937   1.110       .  S
C932        H938   1.086       .  S
C932        C933   1.392       .  D
C934        H939   1.099       .  S
C934        C935   1.319       .  D
C940        C941   1.580       .  S
C940        C946   1.499       .  S
C940        C944   1.513       .  S
C941        H948   1.083       .  S
C941        C942   1.380       .  D
C942        C943   1.527       .  S
C943        C947   1.558       .  S
C943        C945   1.580       .  S
C943        H949   1.110       .  S
C944        H950   1.078       .  S
C944        C945   1.378       .  D
C945        C954   1.478       .  S
C946        H951   1.095       .  S
C946        C947   1.320       .  D
C952       C1011   1.497       .  S
C952        N953   1.355       .  A
C952        N957   1.368       .  A
N953        C954   1.360       .  A
C954        N955   1.360       .  A
N955        C956   1.364       .  A
C956        C960   1.494       .  S
C956        N957   1.370       .  A
C958       C1036   1.525       .  S
C958        C959   1.548       .  S
C958        C964   1.500       .  S
C958        C962   1.569       .  S
C959        H966   1.085       .  S
C959        C960   1.377       .  D
C960        C961   1.551       .  S
C961        C965   1.545       .  S
C961        C963   1.541       .  S
C961        H967   1.111       .  S
C962        H968   1.082       .  S
C962        C963   1.396       .  D
C963        C974   1.518       .  S
C964        H969   1.093       .  S
C964        C965   1.322       .  D
C970        C987   1.511   1_655  S
C970        N971   1.376       .  A
C970        N975   1.362       .  A
N971        C972   1.374       .  A
C972        N973   1.377       .  A
N973        C974   1.380       .  A
C974        N975   1.362       .  A
C976       C1008   1.531       .  S
C976        N977   1.379       .  A
C976        N981   1.377       .  A
N977        C978   1.378   1_655  A
C978        C984   1.509       .  S
C978        N979   1.354   1_455  A
N979        C980   1.358       .  A
C980        C999   1.509       .  S
C980        N981   1.372       .  A
C982        C983   1.559       .  S
C982        C988   1.511       .  S
C982        C986   1.538       .  S
C983        H990   1.083       .  S
C983        C984   1.394       .  D
C984        C985   1.548       .  S
C985        C989   1.554       .  S
C985        C987   1.564       .  S
C985        H991   1.111       .  S
C986        H992   1.080       .  S
C986        C987   1.370       .  D
C988        H993   1.089       .  S
C988        C989   1.325       .  D
C994        C995   1.552       .  S
C994       C1000   1.512       .  S
C994        C998   1.532       .  S
C995       H1002   1.080       .  S
C995        C996   1.369       .  D
C996        C997   1.539       .  S
C997       C1001   1.586       .  S
C997        C999   1.600       .  S
C997       H1003   1.110       .  S
C998       H1004   1.086       .  S
C998        C999   1.403       .  D
C1000      H1005   1.097       .  S
C1000      C1001   1.327       .  D
C1006      C1007   1.571       .  S
C1006      C1012   1.500       .  S
C1006      C1010   1.538       .  S
C1007      H1014   1.082       .  S
C1007      C1008   1.396       .  D
C1008      C1009   1.558       .  S
C1009      C1013   1.558       .  S
C1009      C1011   1.561       .  S
C1009      H1015   1.110       .  S
C1010      H1016   1.077       .  S
C1010      C1011   1.374       .  D
C1012      H1017   1.094       .  S
C1012      C1013   1.317       .  D
O1018      C1034   1.284       .  A
O1018     Zn1024   2.211   1_455  S
C1019      O1035   1.283       .  A
C1019      O1032   1.258       .  A
O1020      C1033   1.299       .  A
O1020     Cd1027   2.189       .  S
O1021      C1039   1.261       .  A
O1021     Cd1030   2.142       .  S
O1022      C1036   1.268       .  A
O1022     Cd1026   2.320       .  S
O1023      C1034   1.271       .  A
O1023     Cd1026   2.302   1_455  S
Zn1024     O1035   2.265       .  S
Zn1024     O1037   1.995   1_655  S
Zn1024     O1029   2.065       .  S
O1025      C1036   1.279       .  A
O1025     Cd1030   2.332       .  S
Cd1026     O1028   2.192   1_655  S
Cd1026     O1029   2.094       .  S
Cd1027     O1031   2.224       .  S
Cd1027     O1040   2.241   1_455  S
Cd1027     O1029   1.973   1_455  S
O1028      C1038   1.266       .  A
O1029     Cd1030   2.092       .  S
Cd1030     O1032   2.312       .  S
O1031      C1038   1.306       .  A
C1033      O1037   1.259       .  A
C1033      C1101   1.498       .  S
C1039      O1040   1.305       .  A
C1041      C1115   1.497   1_455  S
C1041      N1042   1.361       .  A
C1041      N1046   1.368       .  A
N1042      C1043   1.363   1_554  A
C1043      C1103   1.511       .  S
C1043      N1044   1.365   1_556  A
N1044      C1045   1.374   1_545  A
C1045      C1091   1.508       .  S
C1045      N1046   1.367   1_565  A
C1047      C1106   1.501   1_554  S
C1047      N1048   1.369       .  A
C1047      N1052   1.378       .  A
N1048      C1049   1.351       .  A
C1049      C1082   1.490       .  S
C1049      N1050   1.348       .  A
N1050      C1051   1.358       .  A
C1051      C1127   1.502       .  S
C1051      N1052   1.374       .  A
C1053      C1118   1.502       .  S
C1053      N1054   1.357   1_655  A
C1053      N1058   1.372   1_655  A
N1054      C1055   1.358       .  A
C1055      C1067   1.496       .  S
C1055      N1056   1.362       .  A
N1056      C1057   1.370       .  A
C1057      C1079   1.508       .  S
C1057      N1058   1.374       .  A
C1059      C1094   1.494       .  S
C1059      N1060   1.364   1_565  A
C1059      N1064   1.359   1_565  A
N1060      C1061   1.356       .  A
C1061      C1130   1.509       .  S
C1061      N1062   1.381       .  A
N1062      C1063   1.372       .  A
C1063      C1070   1.527       .  S
C1063      N1064   1.370       .  A
C1065      C1066   1.540       .  S
C1065      C1071   1.475       .  S
C1065      C1069   1.530       .  S
C1066      H1073   1.086       .  S
C1066      C1067   1.379       .  D
C1067      C1068   1.560       .  S
C1068      C1072   1.594       .  S
C1068      C1070   1.577       .  S
C1068      H1074   1.110       .  S
C1069      H1075   1.088       .  S
C1069      C1070   1.371       .  D
C1071      H1076   1.092       .  S
C1071      C1072   1.335       .  D
C1077      C1078   1.544       .  S
C1077      C1083   1.491       .  S
C1077      C1081   1.533       .  S
C1078      H1085   1.085       .  S
C1078      C1079   1.378       .  D
C1079      C1080   1.558       .  S
C1080      C1084   1.567       .  S
C1080      C1082   1.555       .  S
C1080      H1086   1.110       .  S
C1081      H1087   1.086       .  S
C1081      C1082   1.373       .  D
C1083      H1088   1.085       .  S
C1083      C1084   1.333       .  D
C1089      C1090   1.534       .  S
C1089      C1095   1.498       .  S
C1089      C1093   1.532       .  S
C1090      H1097   1.086       .  S
C1090      C1091   1.365       .  D
C1091      C1092   1.561       .  S
C1092      C1096   1.583       .  S
C1092      C1094   1.561       .  S
C1092      H1098   1.110       .  S
C1093      H1099   1.086       .  S
C1093      C1094   1.362       .  D
C1095      H1100   1.087       .  S
C1095      C1096   1.351       .  D
C1101      C1102   1.551       .  S
C1101      C1107   1.472       .  S
C1101      C1105   1.529       .  S
C1102      H1109   1.086       .  S
C1102      C1103   1.375       .  D
C1103      C1104   1.551       .  S
C1104      C1108   1.578       .  S
C1104      C1106   1.564       .  S
C1104      H1110   1.110       .  S
C1105      H1111   1.083       .  S
C1105      C1106   1.375       .  D
C1107      H1112   1.090       .  S
C1107      C1108   1.346       .  D
C1113      C1114   1.542       .  S
C1113      C1119   1.500       .  S
C1113      C1117   1.560       .  S
C1114      H1121   1.081       .  S
C1114      C1115   1.381       .  D
C1115      C1116   1.565       .  S
C1116      C1120   1.554       .  S
C1116      C1118   1.538       .  S
C1116      H1122   1.111       .  S
C1117      H1123   1.086       .  S
C1117      C1118   1.384       .  D
C1119      H1124   1.092       .  S
C1119      C1120   1.315       .  D
C1125      C1126   1.522       .  S
C1125      C1131   1.475       .  S
C1125      C1129   1.527       .  S
C1126      H1133   1.086       .  S
C1126      C1127   1.380       .  D
C1127      C1128   1.568       .  S
C1128      C1132   1.590       .  S
C1128      C1130   1.583       .  S
C1128      H1134   1.110       .  S
C1129      H1135   1.087       .  S
C1129      C1130   1.362       .  D
C1131      H1136   1.088       .  S
C1131      C1132   1.339       .  D
