geometry optimzed in LAMMPS
_audit_creation_date              2020-11-30 
_audit_creation_method            'lammps2cif' 
_symmetry_space_group_name_H-M    'P1' 
_symmetry_Int_Tables_number       1 
_symmetry_cell_setting            triclinic 
loop_ 
_symmetry_equiv_pos_as_xyz 
  x,y,z 
_cell_length_a                    19.14653107 
_cell_length_b                    36.84375606503694 
_cell_length_c                    29.79865695584048 
_cell_angle_alpha                 88.75505349640473 
_cell_angle_beta                  81.599566583886 
_cell_angle_gamma                 98.69424096779453 
loop_ 
_atom_site_label 
_atom_site_type_symbol 
_atom_site_fract_x 
_atom_site_fract_y 
_atom_site_fract_z 
_atom_site_charge 
N1          N  0.10147258  0.24275556  0.98958600    -0.02600
C2          C  0.17249239  0.24769947  0.97003067     0.00000
C3          C  0.21157917  0.27329538  0.99374934    -0.22900
C4          C  0.16832068  0.27986793  0.03200405    -0.23100
C5          C  0.10173549  0.26021680  0.02952198    -0.00100
H6          H  0.26870382  0.28234685  0.98716981     0.13700
H7          H  0.18458922  0.29653202  0.05923246     0.13700
N8          N  0.47113012  0.23850255  0.00016116    -0.02600
C9          C  0.40001021  0.23561402  0.99442897     0.00000
C10         C  0.36032343  0.24566494  0.03375526    -0.22900
C11         C  0.40521461  0.25459206  0.06433881    -0.23100
C12         C  0.47189311  0.24899071  0.04416209    -0.00100
H13         H  0.30302244  0.24425353  0.04090798     0.13700
H14         H  0.39025635  0.26344639  0.09822455     0.13700
C15         C  0.03750381  0.25674240  0.06761890    -0.01600
C16         C  0.03772718  0.24298507  0.96520410    -0.01600
N17         N  0.07146384  0.43755291  0.21619726    -0.26400
N18         N  0.07127885  0.45706870  0.17852004    -0.34300
C19         C  0.06463402  0.43425590  0.14409070     0.01900
C20         C  0.06097699  0.39828241  0.16049039     0.07900
C21         C  0.06518716  0.40175928  0.20658811    -0.05200
H22         H  0.06170980  0.44349320  0.10989302     0.08600
H23         H  0.06468195  0.37986415  0.23145289     0.09800
Cu24       Cu  0.08276716  0.01301062  0.18009669     0.44200
Cu25       Cu  0.08201507  0.46119269  0.27884831     0.42000
Cu26       Cu  0.12072167  0.06122659  0.28045046     0.43900
N27         N  0.09600975  0.06995019  0.18368250    -0.33800
N28         N  0.11229721  0.08785448  0.21967210    -0.28100
C29         C  0.11494231  0.12418188  0.21113469    -0.04200
C30         C  0.09916604  0.12931926  0.16776821     0.08000
C31         C  0.08714958  0.09431016  0.15158358     0.01800
H32         H  0.12262580  0.14496544  0.23579836     0.09500
H33         H  0.07014817  0.08698122  0.11945259     0.08600
N34         N  0.11929808  0.02778631  0.33784146    -0.35300
N35         N  0.09637218  0.49119140  0.33682837    -0.27400
C36         C  0.09440594  0.47776735  0.37943939    -0.02700
C37         C  0.11542989  0.00781551  0.40931916     0.05900
C38         C  0.12124201  0.03864924  0.38061348     0.04000
H39         H  0.08524360  0.44875798  0.38898487     0.09100
H40         H  0.12316690  0.06686531  0.39014299     0.08000
N41         N  0.03692766  0.42227434  0.80414714    -0.26400
N42         N  0.02846386  0.44096460  0.84138667    -0.34300
C43         C  0.02273482  0.41802353  0.87800954     0.01900
C44         C  0.02805822  0.38301042  0.86331202     0.07900
C45         C  0.03744526  0.38687625  0.81619868    -0.05200
H46         H  0.01868315  0.42666523  0.91260280     0.08600
H47         H  0.04540631  0.36556726  0.79240516     0.09800
Cu48       Cu  0.04247257  0.99831506  0.84204936     0.44200
Cu49       Cu  0.04921033  0.44683371  0.73884468     0.42000
Cu50       Cu  0.04864394  0.04671467  0.73499406     0.43900
N51         N  0.04300975  0.05450010  0.83511332    -0.33800
N52         N  0.04302359  0.07256760  0.79643276    -0.28100
C53         C  0.04134012  0.10833319  0.80454694    -0.04200
C54         C  0.04063740  0.11323597  0.85090505     0.08000
C55         C  0.04211782  0.07809568  0.86865366     0.01800
H56         H  0.04064866  0.12875911  0.77821566     0.09500
H57         H  0.04284938  0.06969610  0.90349949     0.08600
N58         N  0.06074319  0.01476413  0.67850170    -0.35300
N59         N  0.05727978  0.47854883  0.67858330    -0.27400
C60         C  0.06289084  0.46669702  0.63585776    -0.02700
C61         C  0.07380771  0.99759523  0.60719034     0.05900
C62         C  0.06731875  0.02689842  0.63499077     0.04000
H63         H  0.06517553  0.43847753  0.62742417     0.09100
H64         H  0.06714976  0.05514586  0.62434647     0.08000
C65         C  0.05754911  0.47321559  0.48234481    -0.11400
C66         C  0.10745430  0.00565799  0.46001825     0.05600
C67         C  0.13857171  0.03396483  0.48568603    -0.06700
C68         C  0.12689091  0.03054470  0.53331318    -0.07400
C69         C  0.08502658  0.99932475  0.55663024    -0.02000
C70         C  0.04760995  0.46963373  0.52986002     0.04800
N71         N  0.00299493  0.43761280  0.55147390     0.67300
H72         H  0.03094919  0.45150994  0.46410261     0.16200
H73         H  0.15193161  0.05235407  0.55218328     0.15900
N74         N  0.18460381  0.06573013  0.46440750     0.75000
O75         O  0.93618282  0.43690831  0.55816087    -0.38400
O76         O  0.02739367  0.40764643  0.55119523    -0.38400
O77         O  0.16236317  0.09629382  0.46572280    -0.39100
O78         O  0.25105490  0.06528925  0.45689772    -0.39100
C79         C  0.03840655  0.21303651  0.88677058    -0.11400
C80         C  0.03254397  0.20935032  0.93436404     0.05600
C81         C  0.02166992  0.17284616  0.95303935    -0.06700
C82         C  0.02667242  0.14311887  0.92510762    -0.07400
C83         C  0.03760607  0.14721592  0.87768151    -0.02000
C84         C  0.04177591  0.18307439  0.85855224     0.04800
N85         N  0.04930464  0.19022630  0.81070689     0.67300
H86         H  0.03887097  0.23913616  0.87018495     0.16200
H87         H  0.01710630  0.11614562  0.94181665     0.15900
N88         N  0.49091713  0.16391587  0.99905273     0.75000
O89         O  0.99450721  0.19355590  0.79298677    -0.38400
O90         O  0.11019228  0.20295029  0.78923809    -0.38400
O91         O  0.42704934  0.14794114  0.00586506    -0.39100
O92         O  0.03104990  0.15724290  0.02701455    -0.39100
C93         C  0.99783460  0.30750002  0.95705514    -0.11400
C94         C  0.04391798  0.28240616  0.93955264     0.05600
C95         C  0.09328727  0.29648078  0.89972098    -0.06700
C96         C  0.08387084  0.32782530  0.87499829    -0.07400
C97         C  0.03329901  0.34972857  0.89103385    -0.02000
C98         C  0.99242595  0.34028827  0.93384891     0.04800
N99         N  0.44012251  0.36175542  0.95299909     0.67300
H100        H  0.46440368  0.30274509  0.98928476     0.16200
H101        H  0.12031805  0.33646510  0.84400605     0.15900
N102        N  0.15836090  0.28310359  0.88530432     0.75000
O103        O  0.37635134  0.35321577  0.94609625    -0.38400
O104        O  0.45268201  0.38141940  0.98589044    -0.38400
O105        O  0.16353640  0.26572450  0.84921253    -0.39100
O106        O  0.21411123  0.30284473  0.89421411    -0.39100
C107        C  0.05779763  0.32741461  0.06746858    -0.11400
C108        C  0.03653969  0.29371297  0.09295796     0.05600
C109        C  0.01643275  0.29619000  0.14084712    -0.06700
C110        C  0.02397823  0.33036961  0.16091882    -0.07400
C111        C  0.05178719  0.36320183  0.13572750    -0.02000
C112        C  0.06902576  0.36131077  0.08812744     0.04800
N113        N  0.10484271  0.39258929  0.06034614     0.67300
H114        H  0.07109419  0.32743644  0.03092080     0.16200
H115        H  0.00693381  0.33092207  0.19713242     0.16300
N116        N  0.98317907  0.26530898  0.17022091     0.75000
O117        O  0.17227524  0.39791920  0.05278152    -0.38400
O118        O  0.07102265  0.40789949  0.03405100    -0.38400
O119        O  0.01985791  0.25223665  0.19666410    -0.39100
O120        O  0.41646665  0.26195938  0.18242260    -0.39100
C121        C  0.10866999  0.22677023  0.11963593    -0.11400
C122        C  0.04511275  0.22421945  0.10019506     0.05600
C123        C  0.99489072  0.19115213  0.11119305    -0.06700
C124        C  0.01560282  0.16069250  0.13153265    -0.07400
C125        C  0.08123621  0.16294403  0.14709863    -0.02000
C126        C  0.12600070  0.19711756  0.14365643     0.04800
N127        N  0.19213146  0.20168504  0.16095150     0.67300
H128        H  0.14582308  0.25216598  0.11632352     0.16200
H129        H  0.47756683  0.13546167  0.13796517     0.15900
N130        N  0.41997346  0.18927921  0.11082367     0.75000
O131        O  0.24850886  0.20057313  0.13364275    -0.38400
O132        O  0.19630922  0.21786054  0.19758245    -0.38400
O133        O  0.38903085  0.16585090  0.08720132    -0.39100
O134        O  0.38347316  0.19889337  0.14591250    -0.39100
C135        C  0.27223501  0.23395006  0.91414022    -0.11400
C136        C  0.21510501  0.21952615  0.94807051     0.05600
C137        C  0.23167746  0.19154761  0.97623808    -0.06700
C138        C  0.30351942  0.18883771  0.97956944    -0.07400
C139        C  0.35934503  0.21650569  0.95967672    -0.02000
C140        C  0.34354244  0.23612539  0.92192306     0.04800
N141        N  0.39733235  0.25806068  0.89043041     0.67300
H142        H  0.26303221  0.24860542  0.88464268     0.16200
H143        H  0.31256968  0.17123029  0.00699143     0.15900
N144        N  0.17778415  0.16940772  0.00713480     0.75000
O145        O  0.42010380  0.24327970  0.85458262    -0.38400
O146        O  0.39605546  0.29213846  0.88808008    -0.38400
O147        O  0.16905804  0.17801786  0.04803015    -0.39100
O148        O  0.16004312  0.13630921  0.99802742    -0.39100
N149        N  0.10383942  0.74164947  0.98991974    -0.02600
C150        C  0.17481335  0.74559429  0.97028197     0.00000
C151        C  0.21471227  0.77186162  0.99271956    -0.22900
C152        C  0.17187985  0.78015198  0.03027603    -0.23100
C153        C  0.10493245  0.76059714  0.02873334    -0.00100
H154        H  0.27190686  0.78053070  0.98579996     0.13700
H155        H  0.18885487  0.79750940  0.05673208     0.13700
N156        N  0.47370078  0.73832136  0.00089345    -0.02600
C157        C  0.40256564  0.73589192  0.99540777     0.00000
C158        C  0.36357002  0.74646098  0.03468852    -0.22900
C159        C  0.40906715  0.75565925  0.06488986    -0.23100
C160        C  0.47533872  0.74962053  0.04452183    -0.00100
H161        H  0.30632941  0.74525094  0.04208229     0.13700
H162        H  0.39482565  0.76495645  0.09865081     0.13700
C163        C  0.04155416  0.75744997  0.06735991    -0.01600
C164        C  0.03995697  0.74221464  0.96571559    -0.01600
N165        N  0.08904150  0.93701535  0.21736147    -0.26400
N166        N  0.08082503  0.95638631  0.18119564    -0.34300
C167        C  0.07195936  0.93379605  0.14682523     0.01900
C168        C  0.07509555  0.89812403  0.16152635     0.07900
C169        C  0.08580082  0.90147087  0.20669332    -0.05200
H170        H  0.06170760  0.94287864  0.11409203     0.08600
H171        H  0.09046307  0.87955946  0.23030093     0.09800
Cu172      Cu  0.08287980  0.51415060  0.17596727     0.44200
Cu173      Cu  0.10213133  0.96066561  0.27984787     0.42000
Cu174      Cu  0.11207905  0.56117322  0.27967358     0.43900
N175        N  0.10019761  0.57096988  0.18068815    -0.33800
N176        N  0.11201669  0.58818044  0.21799421    -0.28100
C177        C  0.11585287  0.62461071  0.21002733    -0.04200
C178        C  0.10576880  0.63056023  0.16563891     0.08000
C179        C  0.09574602  0.59596939  0.14819160     0.01800
H180        H  0.11954382  0.64484988  0.23568943     0.09500
H181        H  0.08157536  0.58931281  0.11515255     0.08600
N182        N  0.10722349  0.52748199  0.33699004    -0.35300
N183        N  0.11231619  0.99150467  0.33781827    -0.27400
C184        C  0.10970964  0.97848397  0.38072178    -0.02700
C185        C  0.10446451  0.50688560  0.40802242     0.05900
C186        C  0.11217200  0.53801820  0.37957228     0.04000
H187        H  0.10269191  0.94957073  0.39052969     0.09100
H188        H  0.11785485  0.56630842  0.38909726     0.08000
N189        N  0.04632371  0.92310179  0.80549561    -0.26400
N190        N  0.03940016  0.94178953  0.84283415    -0.34300
C191        C  0.03304446  0.91862754  0.87933803     0.01900
C192        C  0.03632024  0.88347958  0.86444843     0.07900
C193        C  0.04522104  0.88750961  0.81736916    -0.05200
H194        H  0.02953856  0.92713985  0.91397518     0.08600
H195        H  0.05137250  0.86611251  0.79345937     0.09800
Cu196      Cu  0.03053523  0.49736045  0.84029582     0.44200
Cu197      Cu  0.05758136  0.94758562  0.74013045     0.42000
Cu198      Cu  0.05121704  0.54739699  0.73306516     0.43900
N199        N  0.03534628  0.55382734  0.83388463    -0.33800
N200        N  0.04262228  0.57281108  0.79502527    -0.28100
C201        C  0.04389245  0.60871601  0.80361862    -0.04200
C202        C  0.03703574  0.61266826  0.85052579     0.08000
C203        C  0.03194433  0.57682047  0.86803266     0.01800
H204        H  0.04994345  0.62993234  0.77722318     0.09500
H205        H  0.02630700  0.56742923  0.90311103     0.08600
N206        N  0.05844980  0.51458243  0.67690444    -0.35300
N207        N  0.06357226  0.97908098  0.67981348    -0.27400
C208        C  0.07140382  0.96766124  0.63687842    -0.02700
C209        C  0.06793669  0.49666425  0.60580106     0.05900
C210        C  0.06519721  0.52645257  0.63327370     0.04000
H211        H  0.07674672  0.93981312  0.62798769     0.09100
H212        H  0.06782418  0.55488273  0.62232347     0.08000
C213        C  0.06572989  0.97442625  0.48353710    -0.11400
C214        C  0.09878094  0.50445488  0.45859382     0.05600
C215        C  0.13148837  0.53247814  0.48398029    -0.06700
C216        C  0.12055522  0.52910671  0.53158261    -0.07400
C217        C  0.07862329  0.49802490  0.55520063    -0.02000
C218        C  0.05423939  0.97104737  0.53111184     0.04800
N219        N  0.00737466  0.93970176  0.55270099     0.67300
H220        H  0.03973840  0.95271732  0.46500038     0.16200
H221        H  0.14651774  0.55082008  0.55016992     0.15900
N222        N  0.17883261  0.56373545  0.46246798     0.75000
O223        O  0.94119219  0.94082048  0.56073377    -0.38400
O224        O  0.02862128  0.90890016  0.55206869    -0.38400
O225        O  0.15842226  0.59475368  0.46394374    -0.39100
O226        O  0.24494646  0.56234465  0.45489676    -0.39100
C227        C  0.03652148  0.71232439  0.88757826    -0.11400
C228        C  0.03357975  0.70856602  0.93496083     0.05600
C229        C  0.02417293  0.67207582  0.95345353    -0.06700
C230        C  0.02855390  0.64242434  0.92523473    -0.07400
C231        C  0.03571206  0.64654580  0.87781748    -0.02000
C232        C  0.03777783  0.68239223  0.85919323     0.04800
N233        N  0.03964639  0.68951718  0.81176119     0.67300
H234        H  0.03641147  0.73844218  0.87137608     0.16200
H235        H  0.02172753  0.61557628  0.94185793     0.15900
N236        N  0.49524194  0.66305160  0.99975508     0.75000
O237        O  0.98190363  0.69174747  0.79694584    -0.38400
O238        O  0.09801689  0.70348382  0.78806579    -0.38400
O239        O  0.43116295  0.64746082  0.00756872    -0.39100
O240        O  0.03639005  0.65602579  0.02686649    -0.39100
C241        C  0.00216903  0.80728434  0.95759249    -0.11400
C242        C  0.04694387  0.78162581  0.93993788     0.05600
C243        C  0.09635991  0.79520741  0.89999267    -0.06700
C244        C  0.08839920  0.82694451  0.87545419    -0.07400
C245        C  0.03953864  0.84968291  0.89186066    -0.02000
C246        C  0.99865109  0.84052623  0.93472529     0.04800
N247        N  0.44940781  0.86329088  0.95481468     0.67300
H248        H  0.46876487  0.80282620  0.98972588     0.16200
H249        H  0.12485646  0.83523031  0.84438041     0.15900
N250        N  0.16021292  0.78081079  0.88528116     0.75000
O251        O  0.38485463  0.85646425  0.94898231    -0.38400
O252        O  0.46510315  0.88238914  0.98756456    -0.38400
O253        O  0.16345371  0.76279693  0.84967383    -0.39100
O254        O  0.21713445  0.80000110  0.89330212    -0.39100
C255        C  0.06267574  0.82812184  0.06784680    -0.11400
C256        C  0.04187711  0.79431338  0.09310058     0.05600
C257        C  0.02513064  0.79650602  0.14131424    -0.06700
C258        C  0.03645830  0.83039066  0.16179770    -0.07400
C259        C  0.06324124  0.86328653  0.13657829    -0.02000
C260        C  0.07617281  0.86181580  0.08873448     0.04800
N261        N  0.10959904  0.89337997  0.06065931     0.67300
H262        H  0.07364272  0.82833106  0.03118712     0.16200
H263        H  0.02245197  0.83079221  0.19831110     0.16300
N264        N  0.99069414  0.76579521  0.17063607     0.75000
O265        O  0.17592848  0.89696794  0.04694944    -0.38400
O266        O  0.07170850  0.91093656  0.03972464    -0.38400
O267        O  0.02681021  0.75183706  0.19671411    -0.39100
O268        O  0.42425104  0.76332205  0.18310633    -0.39100
C269        C  0.11399690  0.72763513  0.11814624    -0.11400
C270        C  0.04979176  0.72497139  0.09945352     0.05600
C271        C  0.99954879  0.69199684  0.11083751    -0.06700
C272        C  0.02081619  0.66160684  0.13081650    -0.07400
C273        C  0.08702608  0.66402137  0.14563388    -0.02000
C274        C  0.13169503  0.69816431  0.14207412     0.04800
N275        N  0.19750881  0.70302782  0.15975771     0.67300
H276        H  0.15104569  0.75307642  0.11461885     0.16200
H277        H  0.48299491  0.63633325  0.13755493     0.15900
N278        N  0.42443854  0.69025623  0.11138550     0.75000
O279        O  0.25440383  0.70273030  0.13262207    -0.38400
O280        O  0.20056480  0.71891277  0.19667543    -0.38400
O281        O  0.39239500  0.66670550  0.08841149    -0.39100
O282        O  0.38904340  0.70037910  0.14660031    -0.39100
C283        C  0.27323283  0.73083608  0.91427275    -0.11400
C284        C  0.21640746  0.71674650  0.94866716     0.05600
C285        C  0.23443487  0.68962561  0.97752199    -0.06700
C286        C  0.30655710  0.68836459  0.98161081    -0.07400
C287        C  0.36103743  0.71647026  0.96132682    -0.02000
C288        C  0.34440692  0.73526708  0.92312295     0.04800
N289        N  0.39551525  0.76127533  0.89478770     0.67300
H290        H  0.26337105  0.74480662  0.88467787     0.16200
H291        H  0.31647603  0.67132902  0.00924956     0.15900
N292        N  0.18130469  0.66622696  0.00750214     0.75000
O293        O  0.42254087  0.75072606  0.85712672    -0.38400
O294        O  0.38774681  0.79457369  0.89698049    -0.38400
O295        O  0.17277716  0.67325892  0.04895281    -0.39100
O296        O  0.16460659  0.63349317  0.99661692    -0.39100
N297        N  0.60145662  0.24275536  0.98960535    -0.02600
C298        C  0.67247963  0.24769936  0.97005696     0.00000
C299        C  0.71156195  0.27328872  0.99378582    -0.22900
C300        C  0.66829722  0.27985465  0.03204058    -0.23100
C301        C  0.60171234  0.26020751  0.02954754    -0.00100
H302        H  0.76868602  0.28234182  0.98720937     0.13700
H303        H  0.68455946  0.29651433  0.05927422     0.13700
N304        N  0.97114503  0.23850146  0.00015166    -0.02600
C305        C  0.90002217  0.23561266  0.99442561     0.00000
C306        C  0.86034423  0.24566656  0.03375352    -0.22900
C307        C  0.90524429  0.25460019  0.06433002    -0.23100
C308        C  0.97191900  0.24899662  0.04414965    -0.00100
H309        H  0.80304367  0.24425336  0.04091274     0.13700
H310        H  0.89029396  0.26345957  0.09821423     0.13700
C311        C  0.53747126  0.25673325  0.06763737    -0.01600
C312        C  0.53771854  0.24299251  0.96521841    -0.01600
N313        N  0.57138502  0.43754588  0.21620555    -0.26400
N314        N  0.57127204  0.45706356  0.17851854    -0.34300
C315        C  0.56465416  0.43425090  0.14408696     0.01900
C316        C  0.56093993  0.39827541  0.16049648     0.07900
C317        C  0.56509004  0.40175162  0.20660130    -0.05200
H318        H  0.56178515  0.44349045  0.10988146     0.08600
H319        H  0.56453117  0.37985603  0.23147578     0.09800
Cu320      Cu  0.58274494  0.01298919  0.18008764     0.44200
Cu321      Cu  0.58186882  0.46117907  0.27886474     0.42000
Cu322      Cu  0.62075426  0.06121254  0.28042698     0.43900
N323        N  0.59596817  0.06992699  0.18367107    -0.33800
N324        N  0.61227561  0.08783256  0.21965549    -0.28100
C325        C  0.61491315  0.12415900  0.21111965    -0.04200
C326        C  0.59911160  0.12929485  0.16775983     0.08000
C327        C  0.58708754  0.09428559  0.15157651     0.01800
H328        H  0.62261410  0.14494318  0.23578051     0.09500
H329        H  0.57007425  0.08695585  0.11944895     0.08600
N330        N  0.61939358  0.02778870  0.33782171    -0.35300
N331        N  0.59623142  0.49116903  0.33684711    -0.27400
C332        C  0.59427745  0.47774107  0.37945486    -0.02700
C333        C  0.61554806  0.00783049  0.40930206     0.05900
C334        C  0.62134541  0.03865919  0.38059059     0.04000
H335        H  0.58510192  0.44873152  0.38900151     0.09100
H336        H  0.62325145  0.06687547  0.39011711     0.08000
N337        N  0.53681477  0.42227081  0.80416122    -0.26400
N338        N  0.52816046  0.44094838  0.84139933    -0.34300
C339        C  0.52244737  0.41801283  0.87802637     0.01900
C340        C  0.52797720  0.38301611  0.86333374     0.07900
C341        C  0.53746566  0.38688777  0.81621809    -0.05200
H342        H  0.51826871  0.42665273  0.91262193     0.08600
H343        H  0.54558511  0.36559416  0.79242689     0.09800
Cu344      Cu  0.54239480  0.99832838  0.84204179     0.44200
Cu345      Cu  0.54919523  0.44683076  0.73885391     0.42000
Cu346      Cu  0.54841915  0.04672731  0.73499486     0.43900
N347        N  0.54290805  0.05451355  0.83510857    -0.33800
N348        N  0.54284928  0.07257747  0.79643595    -0.28100
C349        C  0.54117169  0.10834321  0.80455348    -0.04200
C350        C  0.54055914  0.11325034  0.85090323     0.08000
C351        C  0.54207747  0.07811301  0.86864527     0.01800
H352        H  0.54041939  0.12876698  0.77823148     0.09500
H353        H  0.54288365  0.06972068  0.90348406     0.08600
N354        N  0.56059032  0.01478893  0.67849461    -0.35300
N355        N  0.55736301  0.47854951  0.67858630    -0.27400
C356        C  0.56287346  0.46668697  0.63586625    -0.02700
C357        C  0.57373942  0.99763257  0.60717836     0.05900
C358        C  0.56719262  0.02692864  0.63498271     0.04000
H359        H  0.56501930  0.43845470  0.62744019     0.09100
H360        H  0.56700623  0.05517463  0.62433987     0.08000
C361        C  0.55740168  0.47321970  0.48236634    -0.11400
C362        C  0.60753171  0.00568074  0.46000301     0.05600
C363        C  0.63865778  0.03398232  0.48567510    -0.06700
C364        C  0.62692282  0.03057202  0.53330484    -0.07400
C365        C  0.58500169  0.99936462  0.55661719    -0.02000
C366        C  0.54749134  0.46964527  0.52988177     0.04800
N367        N  0.50276038  0.43766567  0.55151512     0.67300
H368        H  0.53070372  0.45153853  0.46413473     0.16200
H369        H  0.65196770  0.05237572  0.55218131     0.15900
N370        N  0.68475945  0.06572713  0.46439861     0.75000
O371        O  0.43597043  0.43704314  0.55822302    -0.38400
O372        O  0.52701052  0.40765770  0.55123114    -0.38400
O373        O  0.66257743  0.09630588  0.46567984    -0.39100
O374        O  0.75120151  0.06525393  0.45692236    -0.39100
C375        C  0.53845153  0.21305561  0.88677532    -0.11400
C376        C  0.53253937  0.20936228  0.93437078     0.05600
C377        C  0.52161846  0.17285423  0.95304152    -0.06700
C378        C  0.52657693  0.14312653  0.92510610    -0.07400
C379        C  0.53756002  0.14723011  0.87768117    -0.02000
C380        C  0.54181800  0.18309571  0.85855310     0.04800
N381        N  0.54947230  0.19025872  0.81070387     0.67300
H382        H  0.53896120  0.23916159  0.87018870     0.16200
H383        H  0.51695198  0.11614842  0.94180888     0.15900
N384        N  0.99093616  0.16390532  0.99904451     0.75000
O385        O  0.49475768  0.19366537  0.79293212    -0.38400
O386        O  0.61042697  0.20292276  0.78928433    -0.38400
O387        O  0.92706706  0.14793167  0.00583613    -0.39100
O388        O  0.53105739  0.15725697  0.02700754    -0.39100
C389        C  0.49780695  0.30750506  0.95707959    -0.11400
C390        C  0.54391052  0.28242010  0.93957799     0.05600
C391        C  0.59329401  0.29650986  0.89975855    -0.06700
C392        C  0.58387091  0.32785675  0.87504110    -0.07400
C393        C  0.53326444  0.34974529  0.89106737    -0.02000
C394        C  0.49238005  0.34029210  0.93387709     0.04800
N395        N  0.94019620  0.36176730  0.95297134     0.67300
H396        H  0.96443798  0.30274684  0.98926344     0.16200
H397        H  0.62032984  0.33650595  0.84405653     0.15900
N398        N  0.65837829  0.28314139  0.88534546     0.75000
O399        O  0.87642016  0.35324506  0.94607070    -0.38400
O400        O  0.95277907  0.38143031  0.98585933    -0.38400
O401        O  0.66358381  0.26578571  0.84923600    -0.39100
O402        O  0.71411574  0.30287462  0.89428688    -0.39100
C403        C  0.55777007  0.32740311  0.06748174    -0.11400
C404        C  0.53650447  0.29370345  0.09297375     0.05600
C405        C  0.51638801  0.29618274  0.14086098    -0.06700
C406        C  0.52392994  0.33036347  0.16092904    -0.07400
C407        C  0.55175181  0.36319390  0.13573620    -0.02000
C408        C  0.56900209  0.36129962  0.08813732     0.04800
N409        N  0.60483308  0.39257406  0.06035391     0.67300
H410        H  0.57107386  0.32742276  0.03093459     0.16200
H411        H  0.50687396  0.33091723  0.19714100     0.16300
N412        N  0.48312761  0.26530347  0.17023564     0.75000
O413        O  0.67226617  0.39790138  0.05280213    -0.38400
O414        O  0.57102979  0.40787839  0.03404272    -0.38400
O415        O  0.51980221  0.25222972  0.19668046    -0.39100
O416        O  0.91651766  0.26196017  0.18240815    -0.39100
C417        C  0.60861882  0.22675535  0.11966147    -0.11400
C418        C  0.54506914  0.22420861  0.10021340     0.05600
C419        C  0.49484756  0.19114005  0.11119720    -0.06700
C420        C  0.51556025  0.16067391  0.13152105    -0.07400
C421        C  0.58118777  0.16292198  0.14709397    -0.02000
C422        C  0.62594571  0.19709692  0.14367260     0.04800
N423        N  0.69206255  0.20166214  0.16098510     0.67300
H424        H  0.64576759  0.25215228  0.11636268     0.16200
H425        H  0.97760939  0.13548096  0.13798697     0.15900
N426        N  0.92001956  0.18928224  0.11079785     0.75000
O427        O  0.74845911  0.20056880  0.13368642    -0.38400
O428        O  0.69620557  0.21781549  0.19763388    -0.38400
O429        O  0.88910109  0.16583931  0.08718240    -0.39100
O430        O  0.88349330  0.19890885  0.14586830    -0.39100
C431        C  0.77221644  0.23395592  0.91415953    -0.11400
C432        C  0.71509564  0.21952901  0.94809278     0.05600
C433        C  0.73167850  0.19154952  0.97625512    -0.06700
C434        C  0.80352452  0.18883758  0.97957306    -0.07400
C435        C  0.85934653  0.21650580  0.95967649    -0.02000
C436        C  0.84352887  0.23612852  0.92192953     0.04800
N437        N  0.89730768  0.25806586  0.89043206     0.67300
H438        H  0.76300324  0.24861984  0.88466841     0.16200
H439        H  0.81258501  0.17122821  0.00699105     0.15900
N440        N  0.67779504  0.16941217  0.00716116     0.75000
O441        O  0.92005300  0.24328973  0.85457444    -0.38400
O442        O  0.89603378  0.29214424  0.88809273    -0.38400
O443        O  0.66908346  0.17802703  0.04805494    -0.39100
O444        O  0.66004992  0.13631225  0.99806115    -0.39100
N445        N  0.60383451  0.74165635  0.98991335    -0.02600
C446        C  0.67480907  0.74561125  0.97027298     0.00000
C447        C  0.71470049  0.77187536  0.99271879    -0.22900
C448        C  0.67187024  0.78014576  0.03028677    -0.23100
C449        C  0.60492650  0.76058876  0.02873901    -0.00100
H450        H  0.77189529  0.78054663  0.98580223     0.13700
H451        H  0.68884367  0.79749426  0.05675105     0.13700
N452        N  0.97370943  0.73831429  0.00089497    -0.02600
C453        C  0.90257568  0.73588135  0.99540513     0.00000
C454        C  0.86357578  0.74645525  0.03468178    -0.22900
C455        C  0.90907035  0.75566019  0.06488400    -0.23100
C456        C  0.97534508  0.74962187  0.04452026    -0.00100
H457        H  0.80633514  0.74524740  0.04207060     0.13700
H458        H  0.89482542  0.76496243  0.09864184     0.13700
C459        C  0.54154522  0.75744014  0.06736336    -0.01600
C460        C  0.53994684  0.74222241  0.96571149    -0.01600
N461        N  0.58910439  0.93700533  0.21735629    -0.26400
N462        N  0.58085014  0.95636999  0.18119440    -0.34300
C463        C  0.57197777  0.93377674  0.14682827     0.01900
C464        C  0.57514914  0.89810946  0.16152699     0.07900
C465        C  0.58588088  0.90146111  0.20668861    -0.05200
H466        H  0.56169232  0.94285315  0.11410079     0.08600
H467        H  0.59056854  0.87955268  0.23029327     0.09800
Cu468      Cu  0.58291263  0.51414569  0.17595998     0.44200
Cu469      Cu  0.60221662  0.96066152  0.27983923     0.42000
Cu470      Cu  0.61195932  0.56115421  0.27969869     0.43900
N471        N  0.60018636  0.57096296  0.18069821    -0.33800
N472        N  0.61193943  0.58816791  0.21801868    -0.28100
C473        C  0.61575237  0.62459747  0.21006068    -0.04200
C474        C  0.60572461  0.63055236  0.16566255     0.08000
C475        C  0.59575607  0.59596560  0.14820022     0.01800
H476        H  0.61939219  0.64483124  0.23573189     0.09500
H477        H  0.58163565  0.58931286  0.11514820     0.08600
N478        N  0.60710646  0.52745954  0.33701018    -0.35300
N479        N  0.61242495  0.99150725  0.33780533    -0.27400
C480        C  0.60983220  0.97849401  0.38071104    -0.02700
C481        C  0.60437811  0.50685721  0.40803411     0.05900
C482        C  0.61209012  0.53799235  0.37958948     0.04000
H483        H  0.60281226  0.94958226  0.39052711     0.09100
H484        H  0.61780334  0.56628207  0.38911833     0.08000
N485        N  0.54627178  0.92311631  0.80548708    -0.26400
N486        N  0.53935150  0.94180267  0.84282699    -0.34300
C487        C  0.53301725  0.91864089  0.87932980     0.01900
C488        C  0.53630447  0.88349300  0.86444022     0.07900
C489        C  0.54518978  0.88752475  0.81735988    -0.05200
H490        H  0.52951368  0.92715359  0.91396664     0.08600
H491        H  0.55133841  0.86612826  0.79344893     0.09800
Cu492      Cu  0.53001504  0.49733247  0.84030220     0.44200
Cu493      Cu  0.55748875  0.94760834  0.74012167     0.42000
Cu494      Cu  0.55157989  0.54742593  0.73304741     0.43900
N495        N  0.53498843  0.55381300  0.83388741    -0.33800
N496        N  0.54270157  0.57282548  0.79501524    -0.28100
C497        C  0.54412303  0.60873945  0.80360775    -0.04200
C498        C  0.53688829  0.61266614  0.85052733     0.08000
C499        C  0.53141171  0.57679403  0.86804386     0.01800
H500        H  0.55057534  0.62998350  0.77720637     0.09500
H501        H  0.52539559  0.56737770  0.90313528     0.08600
N502        N  0.55868737  0.51459427  0.67689739    -0.35300
N503        N  0.56346285  0.97910977  0.67980331    -0.27400
C504        C  0.57134396  0.96769805  0.63686478    -0.02700
C505        C  0.56801292  0.49665871  0.60580297     0.05900
C506        C  0.56543378  0.52646033  0.63326546     0.04000
H507        H  0.57673012  0.93985553  0.62796942     0.09100
H508        H  0.56815749  0.55489631  0.62230783     0.08000
C509        C  0.56574578  0.97446459  0.48351823    -0.11400
C510        C  0.59872954  0.50442625  0.45860046     0.05600
C511        C  0.63156725  0.53242158  0.48396650    -0.06700
C512        C  0.62067406  0.52905681  0.53156786    -0.07400
C513        C  0.57864527  0.49800949  0.55520379    -0.02000
C514        C  0.55420409  0.97109489  0.53109326     0.04800
N515        N  0.50727224  0.93976918  0.55267664     0.67300
H516        H  0.53974460  0.95276194  0.46497677     0.16200
H517        H  0.64674138  0.55074719  0.55013978     0.15900
N518        N  0.67900316  0.56363959  0.46243156     0.75000
O519        O  0.44109928  0.94091979  0.56067603    -0.38400
O520        O  0.52846031  0.90895333  0.55207119    -0.38400
O521        O  0.65872263  0.59468895  0.46390795    -0.39100
O522        O  0.74508875  0.56217899  0.45483581    -0.39100
C523        C  0.53644158  0.71232680  0.88757812    -0.11400
C524        C  0.53356563  0.70857335  0.93495642     0.05600
C525        C  0.52421484  0.67208612  0.95344879    -0.06700
C526        C  0.52861879  0.64243604  0.92522981    -0.07400
C527        C  0.53564437  0.64654813  0.87781720    -0.02000
C528        C  0.53764341  0.68238961  0.85919672     0.04800
N529        N  0.53933899  0.68949907  0.81177787     0.67300
H530        H  0.53630234  0.73844326  0.87138050     0.16200
H531        H  0.52191740  0.61559456  0.94185390     0.15900
N532        N  0.99520852  0.66304473  0.99976212     0.75000
O533        O  0.48150789  0.69166714  0.79704405    -0.38400
O534        O  0.59761802  0.70351778  0.78801890    -0.38400
O535        O  0.93113394  0.64744799  0.00758199    -0.39100
O536        O  0.53641287  0.65602759  0.02686365    -0.39100
C537        C  0.50217315  0.80729705  0.95759316    -0.11400
C538        C  0.54692998  0.78163296  0.93993178     0.05600
C539        C  0.59632664  0.79520703  0.89997569    -0.06700
C540        C  0.58836517  0.82694596  0.87543813    -0.07400
C541        C  0.53952473  0.84969344  0.89185351    -0.02000
C542        C  0.49865758  0.84054122  0.93472711     0.04800
N543        N  0.94937477  0.86326716  0.95479950     0.67300
H544        H  0.96874797  0.80281236  0.98971882     0.16200
H545        H  0.62480893  0.83522611  0.84435734     0.15900
N546        N  0.66017045  0.78080383  0.88525735     0.75000
O547        O  0.88483192  0.85643086  0.94894677    -0.38400
O548        O  0.96503308  0.88236516  0.98755739    -0.38400
O549        O  0.66338235  0.76276870  0.84966713    -0.39100
O550        O  0.71710425  0.79999842  0.89325168    -0.39100
C551        C  0.56267279  0.82810959  0.06785314    -0.11400
C552        C  0.54187378  0.79430173  0.09310744     0.05600
C553        C  0.52515027  0.79649366  0.14132294    -0.06700
C554        C  0.53649969  0.83037749  0.16180546    -0.07400
C555        C  0.56328432  0.86327168  0.13658329    -0.02000
C556        C  0.57619942  0.86180117  0.08873947     0.04800
N557        N  0.60965296  0.89336015  0.06066304     0.67300
H558        H  0.57362859  0.82831885  0.03119326     0.16200
H559        H  0.52250953  0.83078037  0.19831988     0.16300
N560        N  0.49071812  0.76578382  0.17064844     0.75000
O561        O  0.67597923  0.89692872  0.04694941    -0.38400
O562        O  0.57178189  0.91092810  0.03972713    -0.38400
O563        O  0.52683411  0.75183343  0.19673326    -0.39100
O564        O  0.92422906  0.76333883  0.18309922    -0.39100
C565        C  0.61396309  0.72762524  0.11816577    -0.11400
C566        C  0.54977229  0.72495888  0.09945607     0.05600
C567        C  0.49953145  0.69198183  0.11082793    -0.06700
C568        C  0.52079424  0.66159178  0.13081000    -0.07400
C569        C  0.58698628  0.66401150  0.14565183    -0.02000
C570        C  0.63164317  0.69815733  0.14210927     0.04800
N571        N  0.69742566  0.70302743  0.15983040     0.67300
H572        H  0.65100856  0.75306739  0.11464471     0.16200
H573        H  0.98301099  0.63635107  0.13757318     0.15900
N574        N  0.92445420  0.69027263  0.11140303     0.75000
O575        O  0.75435619  0.70274623  0.13272262    -0.38400
O576        O  0.70041646  0.71889883  0.19676189    -0.38400
O577        O  0.89241135  0.66673879  0.08840831    -0.39100
O578        O  0.88905815  0.70037581  0.14663023    -0.39100
C579        C  0.77324825  0.73085101  0.91427919    -0.11400
C580        C  0.71642483  0.71676512  0.94867668     0.05600
C581        C  0.73444386  0.68964359  0.97753629    -0.06700
C582        C  0.80656631  0.68836070  0.98160276    -0.07400
C583        C  0.86105658  0.71646031  0.96131816    -0.02000
C584        C  0.84442789  0.73526232  0.92311816     0.04800
N585        N  0.89556395  0.76123824  0.89475513     0.67300
H586        H  0.76338724  0.74482422  0.88468713     0.16200
H587        H  0.81648045  0.67132558  0.00924276     0.15900
N588        N  0.68132088  0.66628780  0.00757006     0.75000
O589        O  0.92258333  0.75064821  0.85711615    -0.38400
O590        O  0.88783881  0.79454479  0.89689839    -0.38400
O591        O  0.67281616  0.67339172  0.04899750    -0.39100
O592        O  0.66463729  0.63352792  0.99677580    -0.39100
loop_ 
_geom_bond_atom_site_label_1 
_geom_bond_atom_site_label_2 
_geom_bond_distance 
_geom_bond_site_symmetry_2 
_ccdc_geom_bond_type 
N1            C5   1.365   1_556  A
N1            C2   1.382       .  A
N1           C16   1.510       .  S
C2            C3   1.385       .  A
C2          C136   1.517       .  S
C3            C4   1.357   1_556  A
C3            H6   1.082       .  S
C4            C5   1.381       .  A
C4            H7   1.082       .  S
C5           C15   1.535       .  S
N8           C12   1.376       .  A
N8            C9   1.386   1_554  A
N8          C312   1.509   1_554  S
C9           C10   1.390   1_556  A
C9          C139   1.509       .  S
C10          C11   1.354       .  A
C10          H13   1.080       .  S
C11          C12   1.376       .  A
C11          H14   1.080       .  S
C12         C311   1.518       .  S
C15         C108   1.573       .  S
C15         C122   1.563       .  S
C15         C308   1.518   1_455  S
C16         N304   1.509   1_456  S
C16          C80   1.559       .  S
C16          C94   1.607       .  S
N17          C21   1.347       .  A
N17          N18   1.321       .  A
N17         Cu25   2.101       .  S
N18          C19   1.349       .  A
N18        Cu172   2.080       .  S
C19          C20   1.391       .  A
C19          H22   1.079       .  S
C20          C21   1.395       .  A
C20         C111   1.502       .  S
C21          H23   1.081       .  S
Cu24         N27   2.082       .  S
Cu24        N166   2.080   1_545  S
Cu25         N35   2.101       .  S
Cu26         N28   2.080       .  S
Cu26         N34   2.080       .  S
N27          C31   1.344       .  A
N27          N28   1.322       .  A
N28          C29   1.349       .  A
C29          C30   1.385       .  A
C29          H32   1.082       .  S
C30          C31   1.385       .  A
C30         C125   1.480       .  S
C31          H33   1.082       .  S
N34          C38   1.348       .  A
N34         N183   1.323   1_545  A
N35          C36   1.346       .  A
N35         N182   1.322       .  A
C36         C185   1.392       .  A
C36          H39   1.081       .  S
C37          C38   1.388       .  A
C37         C184   1.392   1_545  A
C37          C66   1.495       .  S
C38          H40   1.080       .  S
N41          C45   1.347       .  A
N41          N42   1.321       .  A
N41         Cu49   2.094       .  S
N42          C43   1.347       .  A
N42        Cu196   2.072       .  S
C43          C44   1.385       .  A
C43          H46   1.081       .  S
C44          C45   1.390       .  A
C44          C97   1.488       .  S
C45          H47   1.082       .  S
Cu48         N51   2.074   1_565  S
Cu48        N190   2.074       .  S
Cu49         N59   2.095       .  S
Cu50         N52   2.078       .  S
Cu50         N58   2.080       .  S
N51          C55   1.339       .  A
N51          N52   1.318       .  A
N52          C53   1.349       .  A
C53          C54   1.395       .  A
C53          H56   1.078       .  S
C54          C55   1.394       .  A
C54          C83   1.503       .  S
C55          H57   1.080       .  S
N58          C62   1.344       .  A
N58         N207   1.324   1_545  A
N59          C60   1.350       .  A
N59         N206   1.324       .  A
C60         C209   1.389       .  A
C60          H63   1.081       .  S
C61          C62   1.384   1_565  A
C61         C208   1.390       .  A
C61          C69   1.489       .  S
C62          H64   1.082       .  S
C65          C70   1.401       .  A
C65         C214   1.406       .  A
C65          H72   1.082       .  S
C66          C67   1.417       .  A
C66         C213   1.406   1_545  A
C67          C68   1.404       .  A
C67          N74   1.429       .  S
C68          C69   1.404   1_545  A
C68          H73   1.083       .  S
C69         C218   1.411       .  A
C70         C217   1.412       .  A
C70          N71   1.428       .  S
N71          O75   1.262   1_455  A
N71          O76   1.262       .  A
N74          O78   1.262       .  A
N74          O77   1.262       .  A
C79          C80   1.408       .  A
C79          C84   1.406       .  A
C79          H86   1.070       .  S
C80          C81   1.418       .  A
C81          C82   1.396       .  A
C81         N384   1.421   1_455  S
C82          C83   1.399       .  A
C82          H87   1.080       .  S
C83          C84   1.414       .  A
C84          N85   1.427       .  S
N85          O89   1.262   1_455  A
N85          O90   1.262       .  A
N88         C377   1.421       .  S
N88         O388   1.257   1_556  A
N88          O91   1.260   1_556  A
O92         N384   1.257   1_454  A
C93          C94   1.428   1_655  A
C93          C98   1.404       .  A
C93         H396   1.068       .  S
C94          C95   1.438       .  A
C95          C96   1.405       .  A
C95         N102   1.421       .  S
C96          C97   1.391       .  A
C96         H101   1.083       .  S
C97          C98   1.403   1_455  A
C98         N395   1.429       .  S
N99         C394   1.429       .  S
N99         O103   1.262       .  A
N99         O104   1.261       .  A
H100        C389   1.068       .  S
N102        O106   1.263       .  A
N102        O105   1.263       .  A
C107        C108   1.414       .  A
C107        C112   1.406       .  A
C107        H114   1.082       .  S
C108        C109   1.431       .  A
C109        C110   1.403       .  A
C109        N116   1.429   1_455  S
C110        C111   1.400       .  A
C110        H115   1.082       .  S
C111        C112   1.414       .  A
C112        N113   1.427       .  S
N113        O117   1.262       .  A
N113        O118   1.261       .  A
N116        O416   1.261       .  A
N116        O119   1.262   1_655  A
O120        N412   1.261       .  A
C121        C122   1.414       .  A
C121        C126   1.400       .  A
C121        H128   1.080       .  S
C122        C123   1.433   1_455  A
C123        C124   1.400   1_655  A
C123        N426   1.427       .  S
C124        C125   1.393       .  A
C124        H425   1.084   1_455  S
C125        C126   1.405       .  A
C126        N127   1.424       .  S
N127        O131   1.260       .  A
N127        O132   1.262       .  A
H129        C420   1.084       .  S
N130        C419   1.427       .  S
N130        O134   1.259       .  A
N130        O133   1.259       .  A
C135        C136   1.407       .  A
C135        C140   1.409       .  A
C135        H142   1.072       .  S
C136        C137   1.417       .  A
C137        C138   1.412       .  A
C137        N144   1.419   1_556  S
C138        C139   1.411       .  A
C138        H143   1.082   1_556  S
C139        C140   1.418       .  A
C140        N141   1.424       .  S
N141        O145   1.260       .  A
N141        O146   1.260       .  A
N144        O148   1.262   1_554  A
N144        O147   1.260       .  A
N149        C153   1.365   1_556  A
N149        C150   1.384       .  A
N149        C164   1.510       .  S
C150        C151   1.386       .  A
C150        C284   1.521       .  S
C151        C152   1.357   1_556  A
C151        H154   1.081       .  S
C152        C153   1.380       .  A
C152        H155   1.082       .  S
C153        C163   1.534       .  S
N156        C160   1.377       .  A
N156        C157   1.385   1_554  A
N156        C460   1.509   1_554  S
C157        C158   1.390   1_556  A
C157        C287   1.507       .  S
C158        C159   1.355       .  A
C158        H161   1.080       .  S
C159        C160   1.376       .  A
C159        H162   1.080       .  S
C160        C459   1.518       .  S
C163        C456   1.518   1_455  S
C163        C256   1.574       .  S
C163        C270   1.557       .  S
C164        N452   1.509   1_456  S
C164        C228   1.558       .  S
C164        C242   1.606       .  S
N165        C169   1.349       .  A
N165        N166   1.321       .  A
N165       Cu173   2.105       .  S
N166        C167   1.347       .  A
C167        C168   1.389       .  A
C167        H170   1.079       .  S
C168        C169   1.396       .  A
C168        C259   1.501       .  S
C169        H171   1.082       .  S
Cu172       N175   2.081       .  S
Cu173       N183   2.105       .  S
Cu174       N176   2.071       .  S
Cu174       N182   2.072       .  S
N175        C179   1.343       .  A
N175        N176   1.323       .  A
N176        C177   1.347       .  A
C177        C178   1.382       .  A
C177        H180   1.082       .  S
C178        C179   1.384       .  A
C178        C273   1.473       .  S
C179        H181   1.082       .  S
N182        C186   1.347       .  A
N183        C184   1.347       .  A
C184        H187   1.082       .  S
C185        C186   1.388       .  A
C185        C214   1.495       .  S
C186        H188   1.080       .  S
N189        C193   1.347       .  A
N189        N190   1.322       .  A
N189       Cu197   2.097       .  S
N190        C191   1.348       .  A
C191        C192   1.385       .  A
C191        H194   1.081       .  S
C192        C193   1.390       .  A
C192        C245   1.488       .  S
C193        H195   1.082       .  S
Cu196       N199   2.072       .  S
Cu197       N207   2.097       .  S
Cu198       N200   2.085       .  S
Cu198       N206   2.086       .  S
N199        C203   1.339       .  A
N199        N200   1.318       .  A
N200        C201   1.350       .  A
C201        C202   1.398       .  A
C201        H204   1.078       .  S
C202        C203   1.394       .  A
C202        C231   1.506       .  S
C203        H205   1.079       .  S
N206        C210   1.344       .  A
N207        C208   1.350       .  A
C208        H211   1.081       .  S
C209        C210   1.386       .  A
C209        C217   1.490       .  S
C210        H212   1.082       .  S
C213        C218   1.402       .  A
C213        H220   1.082       .  S
C214        C215   1.417       .  A
C215        C216   1.403       .  A
C215        N222   1.429       .  S
C216        C217   1.405       .  A
C216        H221   1.083       .  S
C218        N219   1.428       .  S
N219        O223   1.262   1_455  A
N219        O224   1.262       .  A
N222        O226   1.262       .  A
N222        O225   1.262       .  A
C227        C228   1.408       .  A
C227        C232   1.405       .  A
C227        H234   1.068       .  S
C228        C229   1.417       .  A
C229        C230   1.398       .  A
C229        N532   1.422   1_455  S
C230        C231   1.402       .  A
C230        H235   1.078       .  S
C231        C232   1.414       .  A
C232        N233   1.426       .  S
N233        O237   1.262   1_455  A
N233        O238   1.262       .  A
N236        C525   1.422       .  S
N236        O536   1.257   1_556  A
N236        O239   1.260   1_556  A
O240        N532   1.257   1_454  A
C241        C242   1.428       .  A
C241        C246   1.404   1_455  A
C241        H544   1.066   1_455  S
C242        C243   1.437       .  A
C243        C244   1.405       .  A
C243        N250   1.420       .  S
C244        C245   1.392       .  A
C244        H249   1.083       .  S
C245        C246   1.403   1_455  A
C246        N543   1.430       .  S
N247        C542   1.430       .  S
N247        O251   1.262       .  A
N247        O252   1.261       .  A
H248        C537   1.066       .  S
N250        O254   1.263       .  A
N250        O253   1.263       .  A
C255        C256   1.414       .  A
C255        C260   1.407       .  A
C255        H262   1.081       .  S
C256        C257   1.432       .  A
C257        C258   1.403       .  A
C257        N264   1.429   1_455  S
C258        C259   1.399       .  A
C258        H263   1.083       .  S
C259        C260   1.415       .  A
C260        N261   1.428       .  S
N261        O265   1.262       .  A
N261        O266   1.261       .  A
N264        O564   1.261       .  A
N264        O267   1.262   1_655  A
O268        N560   1.261       .  A
C269        C270   1.413       .  A
C269        C274   1.397       .  A
C269        H276   1.080       .  S
C270        C271   1.432   1_455  A
C271        C272   1.398   1_655  A
C271        N574   1.427       .  S
C272        C273   1.393       .  A
C272        H573   1.084   1_455  S
C273        C274   1.403       .  A
C274        N275   1.424       .  S
N275        O279   1.260       .  A
N275        O280   1.262       .  A
H277        C568   1.084       .  S
N278        C567   1.427       .  S
N278        O282   1.259       .  A
N278        O281   1.259       .  A
C283        C284   1.409       .  A
C283        C288   1.412       .  A
C283        H290   1.066       .  S
C284        C285   1.418       .  A
C285        C286   1.411       .  A
C285        N292   1.418   1_556  S
C286        C287   1.410       .  A
C286        H291   1.081   1_556  S
C287        C288   1.420       .  A
C288        N289   1.424       .  S
N289        O293   1.260       .  A
N289        O294   1.260       .  A
N292        O296   1.262   1_554  A
N292        O295   1.260       .  A
N297        C301   1.365   1_556  A
N297        C298   1.382       .  A
N297        C312   1.510       .  S
C298        C299   1.385       .  A
C298        C432   1.517       .  S
C299        C300   1.357   1_556  A
C299        H302   1.082       .  S
C300        C301   1.381       .  A
C300        H303   1.082       .  S
C301        C311   1.535       .  S
N304        C308   1.376       .  A
N304        C305   1.386   1_554  A
C305        C306   1.390   1_556  A
C305        C435   1.509       .  S
C306        C307   1.354       .  A
C306        H309   1.080       .  S
C307        C308   1.376       .  A
C307        H310   1.080       .  S
C311        C404   1.573       .  S
C311        C418   1.563       .  S
C312        C376   1.559       .  S
C312        C390   1.607       .  S
N313        C317   1.347       .  A
N313        N314   1.321       .  A
N313       Cu321   2.100       .  S
N314        C315   1.349       .  A
N314       Cu468   2.080       .  S
C315        C316   1.391       .  A
C315        H318   1.079       .  S
C316        C317   1.395       .  A
C316        C407   1.502       .  S
C317        H319   1.081       .  S
Cu320       N462   2.080   1_545  S
Cu320       N323   2.082       .  S
Cu321       N331   2.100       .  S
Cu322       N324   2.080       .  S
Cu322       N330   2.080       .  S
N323        C327   1.344       .  A
N323        N324   1.322       .  A
N324        C325   1.349       .  A
C325        C326   1.385       .  A
C325        H328   1.082       .  S
C326        C327   1.385       .  A
C326        C421   1.480       .  S
C327        H329   1.082       .  S
N330        C334   1.348       .  A
N330        N479   1.323   1_545  A
N331        C332   1.346       .  A
N331        N478   1.322       .  A
C332        C481   1.392       .  A
C332        H335   1.081       .  S
C333        C480   1.392   1_545  A
C333        C334   1.388       .  A
C333        C362   1.495       .  S
C334        H336   1.080       .  S
N337        C341   1.347       .  A
N337        N338   1.321       .  A
N337       Cu345   2.094       .  S
N338        C339   1.347       .  A
N338       Cu492   2.072       .  S
C339        C340   1.385       .  A
C339        H342   1.081       .  S
C340        C341   1.390       .  A
C340        C393   1.488       .  S
C341        H343   1.082       .  S
Cu344       N486   2.074       .  S
Cu344       N347   2.074   1_565  S
Cu345       N355   2.094       .  S
Cu346       N348   2.078       .  S
Cu346       N354   2.080       .  S
N347        C351   1.339       .  A
N347        N348   1.318       .  A
N348        C349   1.349       .  A
C349        C350   1.395       .  A
C349        H352   1.078       .  S
C350        C351   1.394       .  A
C350        C379   1.503       .  S
C351        H353   1.080       .  S
N354        C358   1.344       .  A
N354        N503   1.324   1_545  A
N355        C356   1.350       .  A
N355        N502   1.324       .  A
C356        C505   1.389       .  A
C356        H359   1.081       .  S
C357        C504   1.390       .  A
C357        C358   1.384   1_565  A
C357        C365   1.489       .  S
C358        H360   1.082       .  S
C361        C510   1.406       .  A
C361        C366   1.401       .  A
C361        H368   1.082       .  S
C362        C509   1.406   1_545  A
C362        C363   1.417       .  A
C363        C364   1.404       .  A
C363        N370   1.429       .  S
C364        C365   1.404   1_545  A
C364        H369   1.083       .  S
C365        C514   1.411       .  A
C366        C513   1.412       .  A
C366        N367   1.428       .  S
N367        O371   1.262       .  A
N367        O372   1.262       .  A
N370        O374   1.262       .  A
N370        O373   1.262       .  A
C375        C376   1.408       .  A
C375        C380   1.406       .  A
C375        H382   1.070       .  S
C376        C377   1.418       .  A
C377        C378   1.396       .  A
C378        C379   1.399       .  A
C378        H383   1.080       .  S
C379        C380   1.414       .  A
C380        N381   1.427       .  S
N381        O385   1.262       .  A
N381        O386   1.262       .  A
N384        O387   1.260   1_556  A
C389        C390   1.428       .  A
C389        C394   1.404       .  A
C390        C391   1.438       .  A
C391        C392   1.405       .  A
C391        N398   1.421       .  S
C392        C393   1.391       .  A
C392        H397   1.083       .  S
C393        C394   1.403       .  A
N395        O399   1.262       .  A
N395        O400   1.261       .  A
N398        O402   1.263       .  A
N398        O401   1.263       .  A
C403        C404   1.414       .  A
C403        C408   1.406       .  A
C403        H410   1.082       .  S
C404        C405   1.431       .  A
C405        C406   1.403       .  A
C405        N412   1.429       .  S
C406        C407   1.400       .  A
C406        H411   1.082       .  S
C407        C408   1.414       .  A
C408        N409   1.427       .  S
N409        O413   1.262       .  A
N409        O414   1.261       .  A
N412        O415   1.262       .  A
C417        C418   1.414       .  A
C417        C422   1.400       .  A
C417        H424   1.080       .  S
C418        C419   1.433       .  A
C419        C420   1.400       .  A
C420        C421   1.393       .  A
C421        C422   1.405       .  A
C422        N423   1.424       .  S
N423        O427   1.260       .  A
N423        O428   1.262       .  A
N426        O430   1.259       .  A
N426        O429   1.259       .  A
C431        C432   1.407       .  A
C431        C436   1.409       .  A
C431        H438   1.072       .  S
C432        C433   1.417       .  A
C433        C434   1.412       .  A
C433        N440   1.419   1_556  S
C434        C435   1.411       .  A
C434        H439   1.082   1_556  S
C435        C436   1.418       .  A
C436        N437   1.424       .  S
N437        O441   1.260       .  A
N437        O442   1.260       .  A
N440        O444   1.262   1_554  A
N440        O443   1.260       .  A
N445        C449   1.365   1_556  A
N445        C446   1.384       .  A
N445        C460   1.511       .  S
C446        C447   1.386       .  A
C446        C580   1.521       .  S
C447        C448   1.357   1_556  A
C447        H450   1.081       .  S
C448        C449   1.380       .  A
C448        H451   1.082       .  S
C449        C459   1.534       .  S
N452        C456   1.377       .  A
N452        C453   1.385   1_554  A
C453        C454   1.390   1_556  A
C453        C583   1.507       .  S
C454        C455   1.355       .  A
C454        H457   1.080       .  S
C455        C456   1.376       .  A
C455        H458   1.080       .  S
C459        C552   1.574       .  S
C459        C566   1.557       .  S
C460        C524   1.558       .  S
C460        C538   1.606       .  S
N461        C465   1.349       .  A
N461        N462   1.321       .  A
N461       Cu469   2.105       .  S
N462        C463   1.347       .  A
C463        C464   1.389       .  A
C463        H466   1.079       .  S
C464        C465   1.396       .  A
C464        C555   1.501       .  S
C465        H467   1.082       .  S
Cu468       N471   2.081       .  S
Cu469       N479   2.105       .  S
Cu470       N472   2.071       .  S
Cu470       N478   2.072       .  S
N471        C475   1.343       .  A
N471        N472   1.323       .  A
N472        C473   1.347       .  A
C473        C474   1.382       .  A
C473        H476   1.082       .  S
C474        C475   1.384       .  A
C474        C569   1.473       .  S
C475        H477   1.082       .  S
N478        C482   1.347       .  A
N479        C480   1.347       .  A
C480        H483   1.082       .  S
C481        C482   1.388       .  A
C481        C510   1.495       .  S
C482        H484   1.080       .  S
N485        C489   1.347       .  A
N485        N486   1.322       .  A
N485       Cu493   2.097       .  S
N486        C487   1.348       .  A
C487        C488   1.385       .  A
C487        H490   1.081       .  S
C488        C489   1.390       .  A
C488        C541   1.488       .  S
C489        H491   1.082       .  S
Cu492       N495   2.072       .  S
Cu493       N503   2.098       .  S
Cu494       N496   2.085       .  S
Cu494       N502   2.086       .  S
N495        C499   1.339       .  A
N495        N496   1.318       .  A
N496        C497   1.350       .  A
C497        C498   1.398       .  A
C497        H500   1.078       .  S
C498        C499   1.394       .  A
C498        C527   1.506       .  S
C499        H501   1.079       .  S
N502        C506   1.344       .  A
N503        C504   1.350       .  A
C504        H507   1.081       .  S
C505        C506   1.386       .  A
C505        C513   1.490       .  S
C506        H508   1.082       .  S
C509        C514   1.402       .  A
C509        H516   1.082       .  S
C510        C511   1.417       .  A
C511        C512   1.403       .  A
C511        N518   1.429       .  S
C512        C513   1.405       .  A
C512        H517   1.083       .  S
C514        N515   1.428       .  S
N515        O519   1.262       .  A
N515        O520   1.262       .  A
N518        O522   1.262       .  A
N518        O521   1.262       .  A
C523        C524   1.408       .  A
C523        C528   1.405       .  A
C523        H530   1.068       .  S
C524        C525   1.417       .  A
C525        C526   1.398       .  A
C526        C527   1.402       .  A
C526        H531   1.078       .  S
C527        C528   1.414       .  A
C528        N529   1.426       .  S
N529        O533   1.262       .  A
N529        O534   1.262       .  A
N532        O535   1.260   1_556  A
C537        C538   1.428       .  A
C537        C542   1.404       .  A
C538        C539   1.437       .  A
C539        C540   1.405       .  A
C539        N546   1.420       .  S
C540        C541   1.392       .  A
C540        H545   1.083       .  S
C541        C542   1.403       .  A
N543        O547   1.262       .  A
N543        O548   1.261       .  A
N546        O550   1.263       .  A
N546        O549   1.263       .  A
C551        C552   1.414       .  A
C551        C556   1.407       .  A
C551        H558   1.081       .  S
C552        C553   1.432       .  A
C553        C554   1.403       .  A
C553        N560   1.429       .  S
C554        C555   1.399       .  A
C554        H559   1.083       .  S
C555        C556   1.415       .  A
C556        N557   1.428       .  S
N557        O561   1.262       .  A
N557        O562   1.261       .  A
N560        O563   1.262       .  A
C565        C566   1.413       .  A
C565        C570   1.397       .  A
C565        H572   1.080       .  S
C566        C567   1.432       .  A
C567        C568   1.398       .  A
C568        C569   1.393       .  A
C569        C570   1.403       .  A
C570        N571   1.424       .  S
N571        O575   1.260       .  A
N571        O576   1.262       .  A
N574        O578   1.259       .  A
N574        O577   1.259       .  A
C579        C580   1.409       .  A
C579        C584   1.412       .  A
C579        H586   1.066       .  S
C580        C581   1.418       .  A
C581        C582   1.411       .  A
C581        N588   1.418   1_556  S
C582        C583   1.410       .  A
C582        H587   1.081   1_556  S
C583        C584   1.420       .  A
C584        N585   1.424       .  S
N585        O589   1.260       .  A
N585        O590   1.260       .  A
N588        O592   1.262   1_554  A
N588        O591   1.260       .  A
