geometry optimzed in LAMMPS
_audit_creation_date              2020-11-30 
_audit_creation_method            'lammps2cif' 
_symmetry_space_group_name_H-M    'P1' 
_symmetry_Int_Tables_number       1 
_symmetry_cell_setting            triclinic 
loop_ 
_symmetry_equiv_pos_as_xyz 
  x,y,z 
_cell_length_a                    43.71137005 
_cell_length_b                    41.33207361828721 
_cell_length_c                    42.13794228395355 
_cell_angle_alpha                 90.08132701697967 
_cell_angle_beta                  89.95701464125204 
_cell_angle_gamma                 89.94112859787586 
loop_ 
_atom_site_label 
_atom_site_type_symbol 
_atom_site_fract_x 
_atom_site_fract_y 
_atom_site_fract_z 
_atom_site_charge 
C1          C  0.66273491  0.69586398  0.92883223     0.82900
N2          N  0.68016647  0.71512507  0.90985997    -0.75400
C3          C  0.70286075  0.70166689  0.89179926     0.85400
N4          N  0.70847628  0.66906382  0.89386495    -0.75300
C5          C  0.69013865  0.65024072  0.91253960     0.85500
N6          N  0.66772575  0.66396379  0.92963279    -0.77100
C7          C  0.85032111  0.69677282  0.72742061     0.82900
N8          N  0.86017372  0.66698752  0.73767925    -0.75400
C9          C  0.87898289  0.64878033  0.71875848     0.85400
N10         N  0.88834094  0.66054348  0.69077843    -0.75300
C11         C  0.88000017  0.68994516  0.68064670     0.85500
N12         N  0.86116499  0.70865002  0.69910173    -0.77100
C13         C  0.67513833  0.91368661  0.73086077     0.82900
N14         N  0.69094961  0.89227371  0.74915480    -0.75400
C15         C  0.70973823  0.86997563  0.73506289     0.85400
N16         N  0.71241849  0.86942193  0.70258978    -0.75300
C17         C  0.69565330  0.89064305  0.68481898     0.85500
N18         N  0.67751372  0.91237264  0.69923044    -0.77100
C19         C  0.75184466  0.75549577  0.82653030     0.05000
C20         C  0.74237406  0.78693971  0.81629505     0.05000
C21         C  0.75414918  0.79887063  0.78666215     0.05000
C22         C  0.77818892  0.78177907  0.77044717     0.05000
C23         C  0.78845050  0.75126187  0.78167741     0.05000
C24         C  0.77553150  0.73854849  0.80998121     0.05000
C25         C  0.38257295  0.35633034  0.93110056     0.82900
N26         N  0.36361399  0.33724469  0.91366499    -0.75400
C27         C  0.33999547  0.35097875  0.89731316     0.85400
N28         N  0.33506742  0.38366029  0.89944977    -0.75300
C29         C  0.35490376  0.40230118  0.91653394     0.85500
N30         N  0.37818445  0.38834018  0.93206167    -0.77100
C31         C  0.85074667  0.36497921  0.39322647     0.82900
N32         N  0.86123121  0.35316940  0.42177469    -0.75400
C33         C  0.88062370  0.37150573  0.43999337     0.85400
N34         N  0.88987342  0.40044238  0.42944238    -0.75300
C35         C  0.88089875  0.41219860  0.40134558     0.85500
N36         N  0.86148405  0.39437912  0.38267000    -0.77100
C37         C  0.36795986  0.92689865  0.36542592     0.82900
N38         N  0.35332215  0.93720923  0.39156184    -0.75400
C39         C  0.32628774  0.92444445  0.39987602     0.85400
N40         N  0.31343215  0.90077157  0.38219272    -0.75300
C41         C  0.32773381  0.89023779  0.35552865     0.85500
N42         N  0.35549876  0.90294029  0.34718938    -0.77100
C43         C  0.87229648  0.83143980  0.45482184     0.82900
N44         N  0.85740926  0.85255172  0.47341830    -0.75400
C45         C  0.82776620  0.85920181  0.46862754     0.85400
N46         N  0.81235652  0.84489439  0.44439802    -0.75300
C47         C  0.82690972  0.82291985  0.42555721     0.85500
N48         N  0.85725977  0.81634173  0.43054651    -0.77100
C49         C  0.86788103  0.83588825  0.66372776     0.82900
N50         N  0.85233239  0.81624406  0.68441683    -0.75400
C51         C  0.82704717  0.82813468  0.70000193     0.85400
N52         N  0.81813856  0.85922099  0.69500607    -0.75300
C53         C  0.83417830  0.87819885  0.67479557     0.85500
N54         N  0.85859802  0.86648461  0.65933975    -0.77100
C55         C  0.86436994  0.43333726  0.86053955     0.82900
N56         N  0.85537484  0.43820803  0.89063936    -0.75400
C57         C  0.83148447  0.42196548  0.90267085     0.85400
N58         N  0.81592490  0.40043963  0.88454738    -0.75300
C59         C  0.82464536  0.39525172  0.85398415     0.85500
N60         N  0.84929345  0.41150369  0.84189111    -0.77100
C61         C  0.86449346  0.63109748  0.85653339     0.82900
N62         N  0.84795496  0.65415614  0.84113912    -0.75400
C63         C  0.81871721  0.66060081  0.85063778     0.85400
N64         N  0.80671593  0.64459412  0.87604677    -0.75300
C65         C  0.82364728  0.62147881  0.89089532     0.85500
N66         N  0.85225742  0.61512047  0.88114251    -0.77100
C67         C  0.17779883  0.85208781  0.44293207     0.82900
N68         N  0.19601092  0.83477055  0.42288685    -0.75400
C69         C  0.21576782  0.85052557  0.40301902     0.85400
N70         N  0.21689896  0.88382752  0.40350103    -0.75300
C71         C  0.19774886  0.90062258  0.42339517     0.85500
N72         N  0.17878551  0.88443321  0.44270763    -0.77100
C73         C  0.17314016  0.85409838  0.68256039     0.82900
N74         N  0.19163610  0.83674198  0.70239240    -0.75400
C75         C  0.21156476  0.85252724  0.72223980     0.85400
N76         N  0.21280858  0.88584797  0.72152568    -0.75300
C77         C  0.19346388  0.90266250  0.70187857     0.85500
N78         N  0.17421892  0.88645255  0.68287784    -0.77100
C79         C  0.95149580  0.70952102  0.62748505     0.45100
N80         N  0.99340326  0.71142274  0.60052940     0.04000
C81         C  0.08817356  0.84362651  0.59743997    -0.03800
H82         H  0.95570705  0.85654944  0.57514423     0.09500
C83         C  0.97825099  0.79762359  0.47595514    -0.04200
Co84       Co  0.02755485  0.77072268  0.61941564     0.74200
N85         N  0.99269765  0.82519686  0.59070873    -0.23400
Co86       Co  0.02865184  0.82469335  0.55625465     0.74100
C87         C  0.96013007  0.82515212  0.48426365     0.45300
N88         N  0.99750237  0.72606553  0.50561806     0.03700
N89         N  0.99600054  0.81999434  0.51883084     0.03800
N90         N  0.08266495  0.80803193  0.63754594    -0.44200
H91         H  0.96480053  0.75218167  0.65842379     0.09500
N92         N  0.99455290  0.80545137  0.61524461     0.04000
N93         N  0.06441528  0.82029017  0.52209857     0.03800
C94         C  0.10452844  0.82445364  0.49318516     0.45400
N95         N  0.99512041  0.70588467  0.52973765    -0.22800
C96         C  0.08472372  0.73601870  0.64220764    -0.03700
N97         N  0.96709681  0.69522662  0.60323479    -0.43900
N98         N  0.08922452  0.83845850  0.51772696    -0.44200
C99         C  0.10396512  0.71039569  0.63088148     0.45200
N100        N  0.06000884  0.80596707  0.61709092     0.04000
N101        N  0.06544028  0.70569245  0.53180930    -0.22800
N102        N  0.99472422  0.73549141  0.62106443    -0.23300
N103        N  0.06419416  0.72586166  0.50765045     0.03700
H104        H  0.10227291  0.67422926  0.54786989     0.09600
H105        H  0.09268503  0.78037703  0.46342217     0.09600
N106        N  0.06201860  0.82652799  0.59325264    -0.23400
N107        N  0.99911552  0.79572863  0.49875957    -0.23000
N108        N  0.06314887  0.71170725  0.60235417     0.04000
C109        C  0.95064795  0.82705605  0.62156933     0.45400
C110        C  0.96728402  0.69150126  0.52745652    -0.04300
N111        N  0.06378352  0.79565706  0.50210809    -0.23000
H112        H  0.97545274  0.78083599  0.45645611     0.09600
N113        N  0.97046165  0.80619647  0.63395979    -0.44200
H114        H  0.95744990  0.67501132  0.54451196     0.09600
C115        C  0.10881247  0.70507942  0.50261261     0.45300
C116        C  0.97008269  0.73516796  0.63972193    -0.03700
Co117      Co  0.02926939  0.70682029  0.56612694     0.73800
N118        N  0.97316753  0.72658043  0.48709612    -0.43900
C119        C  0.10161222  0.83076124  0.62698662     0.45500
N120        N  0.08950723  0.69583211  0.60612391    -0.43900
Co121      Co  0.03115176  0.76053194  0.50328950     0.73900
C122        C  0.08755449  0.79704494  0.48250372    -0.04300
C123        C  0.96506527  0.84005913  0.59251232    -0.03800
N124        N  0.06076516  0.73591087  0.62265312    -0.23300
N125        N  0.97176608  0.83807667  0.51147365    -0.44100
H126        H  0.09716644  0.86167947  0.58142281     0.09500
C127        C  0.09326861  0.69096890  0.53055218    -0.04200
Cl128      Cl  0.02912622  0.76574757  0.56127717    -0.47200
C129        C  0.95284356  0.70584362  0.49910661     0.45300
H130        H  0.08920716  0.75330693  0.66085545     0.09500
N131        N  0.08904551  0.72590652  0.48992327    -0.43900
C132        C  0.38106602  0.70287632  0.93950703     0.82900
N133        N  0.36342786  0.72115757  0.91980699    -0.75400
C134        C  0.34345622  0.70643347  0.89942040     0.85400
N135        N  0.34128033  0.67321820  0.89927460    -0.75300
C136        C  0.35985095  0.65540382  0.91879654     0.85500
N137        N  0.37920003  0.67056529  0.93854129    -0.77100
C138        C  0.36728770  0.93038052  0.75765034     0.82900
N139        N  0.35285521  0.94043556  0.73136363    -0.75400
C140        C  0.32588980  0.92761970  0.72296036     0.85400
N141        N  0.31285684  0.90417227  0.74072558    -0.75300
C142        C  0.32687246  0.89394328  0.76760149     0.85500
N143        N  0.35466447  0.90660209  0.77597345    -0.77100
C144        C  0.28781703  0.81258110  0.80448784     0.05000
C145        C  0.26398540  0.79774249  0.78589187     0.05000
C146        C  0.25584297  0.76479239  0.79200574     0.05000
C147        C  0.26974957  0.74861622  0.81818325     0.05000
C148        C  0.29343609  0.76343304  0.83663095     0.05000
C149        C  0.30186510  0.79622382  0.83061662     0.05000
C150        C  0.20037692  0.70537084  0.73488190     0.82900
N151        N  0.19225034  0.67502651  0.74558900    -0.75400
C152        C  0.17606914  0.65452885  0.72611495     0.85400
N153        N  0.16764822  0.66461947  0.69719758    -0.75300
C154        C  0.17426094  0.69435790  0.68664766     0.85500
N155        N  0.19034763  0.71520228  0.70556685    -0.77100
C156        C  0.95372209  0.60792200  0.84671466     0.45100
N157        N  0.99192357  0.57570031  0.84207907     0.04000
C158        C  0.09343016  0.56576568  0.72038758    -0.03800
H159        H  0.95735627  0.54936328  0.69907393     0.09500
C160        C  0.96793763  0.45484551  0.75642679    -0.04200
Co161      Co  0.02758351  0.59330069  0.78487328     0.74200
N162        N  0.99420841  0.56594959  0.72970345    -0.23400
Co163      Co  0.02864474  0.52936716  0.73129741     0.74100
C164        C  0.95046629  0.46741944  0.73047306     0.45300
N165        N  0.99099200  0.47906023  0.82635778     0.03700
N166        N  0.99267013  0.49418734  0.73386829     0.03800
N167        N  0.08707091  0.60722178  0.75436880    -0.44200
H168        H  0.96787438  0.63791204  0.80387927     0.09500
N169        N  0.99534033  0.59040531  0.74982202     0.04000
N170        N  0.06234952  0.49221452  0.73664263     0.03800
C171        C  0.10260489  0.46205759  0.73595195     0.45400
N172        N  0.98977399  0.50351357  0.84649765    -0.22800
C173        C  0.08106022  0.61699170  0.82377142    -0.03700
N174        N  0.96695328  0.58113639  0.85928899    -0.43900
N175        N  0.08905111  0.48795330  0.72176522    -0.44200
C176        C  0.09773502  0.60633182  0.85101056     0.45200
N177        N  0.06211016  0.58945513  0.75228021     0.04000
N178        N  0.05860845  0.50129461  0.84822713    -0.22800
N179        N  0.99427287  0.59650492  0.81852149    -0.23300
N180        N  0.05640935  0.47660211  0.82847186     0.03700
H181        H  0.09453167  0.51477648  0.88119686     0.09600
H182        H  0.08589288  0.43106968  0.77685272     0.09600
N183        N  0.06463012  0.56471553  0.73260024    -0.23400
N184        N  0.99285191  0.47338514  0.75757031    -0.23000
N185        N  0.05986702  0.57424560  0.84388709     0.04000
C186        C  0.95058799  0.59482576  0.72979727     0.45400
C187        C  0.96255766  0.50192648  0.86161845    -0.04300
N188        N  0.05884548  0.47111693  0.75982262    -0.23000
H189        H  0.96176439  0.43607284  0.77303945     0.09600
N190        N  0.97011807  0.60793966  0.75042564    -0.44200
H191        H  0.95384032  0.51935315  0.87853189     0.09600
C192        C  0.09855810  0.46747964  0.85209089     0.45300
C193        C  0.97180781  0.61816680  0.82019093    -0.03700
Co194      Co  0.02511739  0.53857130  0.84670131     0.73800
N195        N  0.96649338  0.46058392  0.82685193    -0.43900
C196        C  0.10818905  0.59407434  0.73550587     0.45500
N197        N  0.08393885  0.57932582  0.86252235    -0.43900
Co198      Co  0.02470960  0.47458303  0.79307788     0.73900
C199        C  0.08235275  0.45055479  0.76018882    -0.04300
C200        C  0.96644787  0.56706840  0.71537717    -0.03800
N201        N  0.05877488  0.59544580  0.82057105    -0.23300
N202        N  0.96691138  0.49173780  0.71698904    -0.44100
H203        H  0.10355747  0.54787984  0.70484825     0.09500
C204        C  0.08515652  0.49775405  0.86431015    -0.04200
Cl205      Cl  0.02654495  0.53394159  0.78901192    -0.47200
C206        C  0.94747923  0.47326311  0.84822386     0.45300
H207        H  0.08582256  0.63696582  0.80796598     0.09500
N208        N  0.07942233  0.45615250  0.83021936    -0.43900
C209        C  0.22140658  0.42848777  0.90074068     0.82900
N210        N  0.19543739  0.44090008  0.88902470    -0.75400
C211        C  0.18344588  0.42974572  0.86187096     0.85400
N212        N  0.19765700  0.40525048  0.84575592    -0.75300
C213        C  0.22444699  0.39265053  0.85726072     0.85500
N214        N  0.23607041  0.40410940  0.88516276    -0.77100
C215        C  0.18622133  0.63313144  0.85930419     0.82900
N216        N  0.20033018  0.65793799  0.84381545    -0.75400
C217        C  0.22967847  0.66593099  0.85172819     0.85400
N218        N  0.24397506  0.65000215  0.87569345    -0.75300
C219        C  0.22952852  0.62528753  0.89056754     0.85500
N220        N  0.20088010  0.61721174  0.88245970    -0.77100
C221        C  0.36002771  0.85261967  0.88837650     0.82900
N222        N  0.36905399  0.84376178  0.91848893    -0.75400
C223        C  0.38624935  0.86460661  0.93660062     0.85400
N224        N  0.39473363  0.89320190  0.92447361    -0.75300
C225        C  0.38706745  0.90215377  0.89495798     0.85500
N226        N  0.36993579  0.88175902  0.87642269    -0.77100
C227        C  0.69169019  0.84614710  0.87906623     0.82900
N228        N  0.68323431  0.83566247  0.90891188    -0.75400
C229        C  0.66870484  0.85651648  0.92952192     0.85400
N230        N  0.66226864  0.88675329  0.92007637    -0.75300
C231        C  0.66953013  0.89736791  0.89096469     0.85500
N232        N  0.68394851  0.87702264  0.87004486    -0.77100
C233        C  0.20101745  0.70614133  0.39322534     0.82900
N234        N  0.19259237  0.71503809  0.42353054    -0.75400
C235        C  0.17615960  0.69397532  0.44210338     0.85400
N236        N  0.16773669  0.66520646  0.43018498    -0.75300
C237        C  0.17483378  0.65634510  0.40044389     0.85500
N238        N  0.19121927  0.67691483  0.38154709    -0.77100
C239        C  0.28785707  0.80929000  0.31863871     0.05000
C240        C  0.26470498  0.79477986  0.33806485     0.05000
C241        C  0.25529879  0.76225025  0.33203823     0.05000
C242        C  0.26714687  0.74604239  0.30465795     0.05000
C243        C  0.29045861  0.76070230  0.28535509     0.05000
C244        C  0.30016976  0.79305781  0.29166055     0.05000
C245        C  0.37944019  0.70413608  0.18173212     0.82900
N246        N  0.37686771  0.67187979  0.18105932    -0.75400
C247        C  0.35631634  0.65632399  0.19910415     0.85400
N248        N  0.33723355  0.67353895  0.21851347    -0.75300
C249        C  0.34004650  0.70656633  0.22014921     0.85500
N250        N  0.36120625  0.72188483  0.20146580    -0.77100
C251        C  0.34790163  0.46195494  0.98141883     0.45100
N252        N  0.34960050  0.48876984  0.02495738     0.04000
C253        C  0.22940758  0.50723265  0.12641277    -0.03800
H254        H  0.20796802  0.51270290  0.99152394     0.09500
C255        C  0.27201561  0.61089371  0.99671998    -0.04200
Co256      Co  0.29398927  0.47342044  0.06303013     0.74200
N257        N  0.24160104  0.50043639  0.02732628    -0.23400
Co258      Co  0.24472663  0.53912778  0.05973993     0.74100
C259        C  0.24638247  0.59867282  0.97930131     0.45300
N260        N  0.33917008  0.58493064  0.02235384     0.03700
N261        N  0.24991957  0.57188806  0.02220035     0.03800
N262        N  0.26093705  0.46395656  0.12409538    -0.44200
H263        H  0.30753998  0.43166009  0.99741959     0.09500
N264        N  0.26000679  0.47535507  0.03010578     0.04000
N265        N  0.24921424  0.57808881  0.09144041     0.03800
C266        C  0.24175581  0.61558233  0.12537370     0.45400
N267        N  0.35760452  0.55972556  0.02140251    -0.22800
C268        C  0.32744608  0.45350563  0.12247581    -0.03700
N269        N  0.36290626  0.48603666  0.99663654    -0.43900
N270        N  0.22980064  0.58784930  0.11367166    -0.44200
C271        C  0.35218751  0.46564694  0.14119128     0.45200
N272        N  0.26177547  0.48076590  0.09765184     0.04000
N273        N  0.35750733  0.56291953  0.09389215    -0.22800
N274        N  0.32641171  0.46854324  0.02794811    -0.23300
N275        N  0.33891785  0.58799069  0.09141004     0.03700
H276        H  0.38501774  0.54589161  0.13347280     0.09600
H277        H  0.28600564  0.64177225  0.11255521     0.09600
N278        N  0.24351800  0.50625872  0.09792927    -0.23400
N279        N  0.27314616  0.59228748  0.02238162    -0.23000
N280        N  0.35109216  0.49162612  0.09703173     0.04000
C281        C  0.23455624  0.46451801  0.98850683     0.45400
C282        C  0.37132363  0.55979537  0.99242928    -0.04300
N283        N  0.27303620  0.59744041  0.08925364    -0.23000
H284        H  0.28818660  0.62949289  0.99015119     0.09600
N285        N  0.25638545  0.45351178  0.00769838    -0.44200
H286        H  0.38671358  0.54152919  0.98333188     0.09600
C287        C  0.35653418  0.59233974  0.13848232     0.45300
C288        C  0.32472777  0.44970138  0.00231193    -0.03700
Co289      Co  0.35576063  0.52567221  0.05930293     0.73800
N290        N  0.33927572  0.60219434  0.99614508    -0.43900
C291        C  0.24145915  0.47903902  0.14338676     0.45500
N292        N  0.36669396  0.48895836  0.12416018    -0.43900
Co293      Co  0.30648684  0.59109606  0.05642671     0.73900
C294        C  0.27021117  0.62187813  0.10961224    -0.04300
C295        C  0.22451492  0.49587868  0.00108969    -0.03800
N296        N  0.32761833  0.47167657  0.09645680    -0.23300
N297        N  0.23346423  0.57432031  0.99591865    -0.44100
H298        H  0.21425123  0.52611008  0.13474245     0.09500
C299        C  0.37028019  0.56400933  0.12312152    -0.04200
Cl300      Cl  0.30020531  0.53233099  0.05961922    -0.47200
C301        C  0.35836785  0.58800291  0.97577922     0.45300
H302        H  0.31074597  0.43528958  0.12856426     0.09500
N303        N  0.33776651  0.60586704  0.11729080    -0.43900
C304        C  0.95230110  0.45421645  0.27120806     0.45100
N305        N  0.99208152  0.48439605  0.27361069     0.04000
C306        C  0.09434691  0.49436433  0.39457907    -0.03800
H307        H  0.95943558  0.51542094  0.41616097     0.09500
C308        C  0.97472780  0.60892226  0.35370064    -0.04200
Co309      Co  0.02791797  0.46672672  0.33088397     0.74200
N310        N  0.99548431  0.49743139  0.38512797    -0.23400
Co311      Co  0.03138119  0.53241422  0.38208394     0.74100
C312        C  0.95638390  0.59775157  0.37971318     0.45300
N313        N  0.99803383  0.58205239  0.28472742     0.03700
N314        N  0.99739457  0.56907721  0.37763079     0.03800
N315        N  0.08753614  0.45224844  0.36133314    -0.44200
H316        H  0.96617177  0.42477654  0.31440156     0.09500
N317        N  0.99609978  0.47212914  0.36605548     0.04000
N318        N  0.06667721  0.56762443  0.37606950     0.03800
C319        C  0.10766233  0.59643536  0.37745369     0.45400
N320        N  0.99459322  0.55677536  0.26596105    -0.22800
C321        C  0.07851884  0.43729132  0.29162636    -0.03700
N322        N  0.96638366  0.47985675  0.25733190    -0.43900
N323        N  0.09241976  0.57220481  0.39250548    -0.44200
C324        C  0.09357269  0.44413184  0.26219378     0.45200
N325        N  0.06280494  0.47047852  0.36305431     0.04000
N326        N  0.06373300  0.55346591  0.26444875    -0.22800
N327        N  0.99406347  0.46418290  0.29773887    -0.23300
N328        N  0.06290222  0.57905048  0.28325490     0.03700
H329        H  0.09984107  0.53538852  0.23369807     0.09600
H330        H  0.09402334  0.62567780  0.33408628     0.09600
N331        N  0.06572460  0.49561463  0.38218184    -0.23400
N332        N  0.99891856  0.58920250  0.35338974    -0.23000
N333        N  0.05967899  0.48071308  0.27030233     0.04000
C334        C  0.95181847  0.46845989  0.38750624     0.45400
C335        C  0.96735926  0.56023841  0.25116821    -0.04300
N336        N  0.06506364  0.58738541  0.35160045    -0.23000
H337        H  0.96946911  0.62747819  0.33654259     0.09600
N338        N  0.97097883  0.45452090  0.36699160    -0.44200
H339        H  0.95690676  0.54281600  0.23538218     0.09600
C340        C  0.10645621  0.58344702  0.26115113     0.45300
C341        C  0.97061517  0.44375980  0.29738499    -0.03700
Co342      Co  0.02749362  0.51893357  0.26698629     0.73800
N343        N  0.97537636  0.60291307  0.28337605    -0.55900
C344        C  0.10860972  0.46556078  0.38013699     0.45500
N345        N  0.08145634  0.47174915  0.25006115    -0.43900
Co346      Co  0.03123164  0.58484047  0.31818062     0.73900
C347        C  0.08928955  0.60696647  0.35127371    -0.04300
C348        C  0.96798273  0.49704040  0.40016713    -0.03800
N349        N  0.05840776  0.46117365  0.29494566    -0.23300
N350        N  0.97154718  0.57306984  0.39399875    -0.44100
H351        H  0.10474535  0.51249202  0.40955131     0.09500
C352        C  0.09111348  0.55398441  0.24935972    -0.04200
Cl353      Cl  0.02951666  0.52572364  0.32447257    -0.47200
C354        C  0.95503191  0.59116011  0.26300190     0.45300
H355        H  0.08216335  0.41757824  0.30805990     0.09500
N356        N  0.08743758  0.59729651  0.28167694    -0.43900
C357        C  0.18039318  0.41578834  0.24926348     0.82900
N358        N  0.19650672  0.39184353  0.26381694    -0.75400
C359        C  0.22722129  0.38913354  0.25851162     0.85400
N360        N  0.24135111  0.41023035  0.23832076    -0.75300
C361        C  0.22475974  0.43436752  0.22453561     0.85500
N362        N  0.19461416  0.43672406  0.23000142    -0.77100
C363        C  0.86289509  0.43103811  0.26428994     0.82900
N364        N  0.84649302  0.40890473  0.28115081    -0.75400
C365        C  0.81744837  0.40142522  0.27171090     0.85400
N366        N  0.80570416  0.41510333  0.24508359    -0.75300
C367        C  0.82246635  0.43709894  0.22882163     0.85500
N368        N  0.85081332  0.44470192  0.23832716    -0.77100
C369        C  0.83349046  0.63340318  0.21803075     0.82900
N370        N  0.85942740  0.62056975  0.22925031    -0.75400
C371        C  0.87076513  0.62985835  0.25732826     0.85400
N372        N  0.85595408  0.65287744  0.27488635    -0.75300
C373        C  0.82919781  0.66582722  0.26366844     0.85500
N374        N  0.81816175  0.65618228  0.23496834    -0.77100
C375        C  0.70057263  0.59231516  0.97772339     0.45100
N376        N  0.70095227  0.56770868  0.02256711     0.04000
C377        C  0.82789287  0.56697759  0.11830499    -0.03800
H378        H  0.84007074  0.54048817  0.98662980     0.09500
C379        C  0.78502153  0.44152866  0.00805184    -0.04200
Co380      Co  0.75678062  0.58775015  0.05769477     0.74200
N381        N  0.80878551  0.55770272  0.02284192    -0.23400
Co382      Co  0.80802090  0.52372420  0.05992763     0.74100
C383        C  0.81270057  0.44985264  0.99167527     0.45300
N384        N  0.71560489  0.47208672  0.02700391     0.03700
N385        N  0.80462662  0.48550270  0.02732619     0.03800
N386        N  0.79420926  0.60811940  0.11303897    -0.44200
H387        H  0.74027768  0.62484935  0.99110939     0.09500
N388        N  0.78986297  0.58262327  0.02348646     0.04000
N389        N  0.80380134  0.48987411  0.09667181     0.03800
C390        C  0.80871019  0.46158795  0.13849085     0.45400
N391        N  0.69623174  0.49647912  0.02467260    -0.22800
C392        C  0.72482245  0.60881275  0.11864900    -0.03700
N393        N  0.68665507  0.56867051  0.99465164    -0.43900
N394        N  0.82074620  0.48690655  0.12255342    -0.44200
C395        C  0.70144054  0.59569655  0.13880135     0.45200
N396        N  0.79050498  0.58607399  0.09086604     0.04000
N397        N  0.69516669  0.49884998  0.09681978    -0.22800
N398        N  0.72349841  0.58880339  0.02370921    -0.23300
N399        N  0.71474313  0.47459364  0.09644369     0.03700
H400        H  0.66405440  0.51576545  0.13365421     0.09600
H401        H  0.76722301  0.43029256  0.12729342     0.09600
N402        N  0.80992994  0.56176029  0.09290602    -0.23400
N403        N  0.78163206  0.46503758  0.02935159    -0.23000
N404        N  0.70107125  0.56981380  0.09466272     0.04000
C405        C  0.81212190  0.58718394  0.97890669     0.45400
C406        C  0.68370906  0.49531732  0.99534014    -0.04300
N407        N  0.78105790  0.46891477  0.09619487    -0.23000
H408        H  0.76979786  0.42125203  0.00446055     0.09600
N409        N  0.79134604  0.60072514  0.99789018    -0.44200
H410        H  0.66827403  0.51283935  0.98513009     0.09600
C411        C  0.69438794  0.47109440  0.14244310     0.45300
C412        C  0.72387643  0.60636380  0.99723312    -0.03700
Co413      Co  0.69658104  0.53327699  0.05964855     0.73800
N414        N  0.71769101  0.45476922  0.00080610    -0.43900
C415        C  0.81726022  0.59794423  0.13108576     0.45500
N416        N  0.68713502  0.57169826  0.12274876    -0.43900
Co417      Co  0.74784357  0.46965117  0.06225411     0.73900
C418        C  0.78292997  0.44948059  0.12118882    -0.04300
C419        C  0.82399131  0.55844408  0.99503265    -0.03800
N420        N  0.72386562  0.59064099  0.09251638    -0.23300
N421        N  0.82378584  0.47761913  0.00417087    -0.44100
H422        H  0.84570882  0.55105751  0.12686051     0.09500
C423        C  0.68055098  0.49826838  0.12521460    -0.04200
Cl424      Cl  0.75236502  0.52860391  0.05989679    -0.47200
C425        C  0.69873383  0.46799511  0.97962826     0.45300
H426        H  0.74163809  0.62703912  0.12426848     0.09500
N427        N  0.71479075  0.45760780  0.12287712    -0.43900
C428        C  0.67507800  0.91188642  0.38394392     0.82900
N429        N  0.67438182  0.90954966  0.41561084    -0.75400
C430        C  0.69103639  0.88732799  0.43105305     0.85400
N431        N  0.70946484  0.86672033  0.41430945    -0.75300
C432        C  0.70973660  0.86820031  0.38176168     0.85500
N433        N  0.69244453  0.89099647  0.36658571    -0.77100
C434        C  0.85573016  0.69956879  0.39282297     0.82900
N435        N  0.86542628  0.71050919  0.42201792    -0.75400
C436        C  0.88432109  0.69154221  0.44018526     0.85400
N437        N  0.89376755  0.66285191  0.42893655    -0.75300
C438        C  0.88537257  0.65209577  0.40020502     0.85500
N439        N  0.86659915  0.67056149  0.38166270    -0.77100
C440        C  0.78257556  0.78271961  0.34854225     0.05000
C441        C  0.79460311  0.75311423  0.33680299     0.05000
C442        C  0.78370914  0.74100193  0.30725977     0.05000
C443        C  0.76003593  0.75761040  0.29017741     0.05000
C444        C  0.74882780  0.78810424  0.30134329     0.05000
C445        C  0.75881660  0.79938532  0.33178978     0.05000
C446        C  0.69640101  0.65822510  0.19913754     0.82900
N447        N  0.67759089  0.67379879  0.17922449    -0.75400
C448        C  0.67589565  0.70609691  0.17866564     0.85400
N449        N  0.69320363  0.72397939  0.19919553    -0.75300
C450        C  0.71268938  0.70856657  0.21976331     0.85500
N451        N  0.71465387  0.67544878  0.21926016    -0.77100
C452        C  0.59531289  0.72416647  0.98800317     0.45100
N453        N  0.55948969  0.73141247  0.02185478     0.04000
C454        C  0.46747682  0.86565620  0.02779583    -0.03800
H455        H  0.60305838  0.87740816  0.04141992     0.09500
C456        C  0.58585332  0.81827396  0.14202251    -0.04200
Co457      Co  0.52683435  0.79202171  0.00458766     0.74200
N458        N  0.56464863  0.84614538  0.02953242    -0.23400
Co459      Co  0.52988834  0.84732191  0.06586280     0.74100
C460        C  0.60590603  0.84278486  0.13027289     0.45300
N461        N  0.56012580  0.74866437  0.11740355     0.03700
N462        N  0.56511516  0.84197078  0.10129548     0.03800
N463        N  0.47103105  0.82889569  0.98854360    -0.44200
H464        H  0.58267798  0.76873130  0.95947382     0.09500
N465        N  0.56127399  0.82528585  0.00607314     0.04000
N466        N  0.49483615  0.84433725  0.10161881     0.03800
C467        C  0.45324551  0.84686838  0.12919795     0.45400
N468        N  0.56151683  0.72795232  0.09355369    -0.22800
C469        C  0.46968798  0.75703883  0.98345804    -0.03700
N470        N  0.58219315  0.71124415  0.01436740    -0.43900
N471        N  0.46844552  0.86051467  0.10431795    -0.44200
C472        C  0.45197439  0.73004628  0.99386323     0.45200
N473        N  0.49511299  0.82800789  0.00729613     0.04000
N474        N  0.49249917  0.72923798  0.09492717    -0.22800
N475        N  0.55800787  0.75583330  0.00181315    -0.23300
N476        N  0.49460584  0.75044922  0.11824943     0.03700
H477        H  0.45710023  0.69427539  0.08349909     0.09600
H478        H  0.46683514  0.80465363  0.16041416     0.09600
N479        N  0.49431474  0.84919976  0.03068607    -0.23400
N480        N  0.56210824  0.81850384  0.12224509    -0.23000
N481        N  0.49136365  0.73376329  0.02379140     0.04000
C482        C  0.60568524  0.84483327  0.99656663     0.45400
C483        C  0.58835955  0.71171909  0.09630607    -0.04300
N484        N  0.49631192  0.82065070  0.12252848    -0.23000
H485        H  0.58955224  0.80158620  0.16135087     0.09600
N486        N  0.58460519  0.82411914  0.98628230    -0.44200
H487        H  0.59714205  0.69398543  0.07976069     0.09600
C488        C  0.45254535  0.72663766  0.12811846     0.45300
C489        C  0.57920484  0.75281018  0.97948609    -0.03700
Co490      Co  0.52626398  0.72892505  0.05859294     0.73800
N491        N  0.58383874  0.74744673  0.13653292    -0.43900
C492        C  0.45212149  0.85150663  0.99964586     0.45500
N493        N  0.46642841  0.71594733  0.01882649    -0.43900
Co494      Co  0.52822685  0.78458917  0.12048529     0.73900
C495        C  0.47200485  0.82147590  0.14158676    -0.04300
C496        C  0.59259222  0.86015950  0.02549174    -0.03800
N497        N  0.49303169  0.75809965  0.00361157    -0.23300
N498        N  0.59190884  0.85719700  0.10497258    -0.44100
H499        H  0.45898946  0.88380305  0.04409609     0.09500
C500        C  0.46608380  0.71271110  0.09913177    -0.04200
Cl501      Cl  0.52782992  0.78822420  0.06239439    -0.47200
C502        C  0.60286859  0.72527715  0.12502448     0.45300
H503        H  0.46550979  0.77340678  0.96395794     0.09500
N504        N  0.47166293  0.74934240  0.13846668    -0.43900
C505        C  0.35731924  0.84972582  0.23345034     0.82900
N506        N  0.36636013  0.84057533  0.20344947    -0.75400
C507        C  0.38325395  0.86135858  0.18510228     0.85400
N508        N  0.39157783  0.89014648  0.19690843    -0.75300
C509        C  0.38418486  0.89932274  0.22643633     0.85500
N510        N  0.36725515  0.87898517  0.24524976    -0.77100
C511        C  0.69702624  0.84763574  0.24044991     0.82900
N512        N  0.68866198  0.87820741  0.25003291    -0.75400
C513        C  0.67371039  0.89844336  0.22946719     0.85400
N514        N  0.66656362  0.88795034  0.20028716    -0.75300
C515        C  0.67336508  0.85791359  0.19051108     0.85500
N516        N  0.68835909  0.83719677  0.21070802    -0.77100
C517        C  0.67058473  0.35685681  0.17865567     0.82900
N518        N  0.68679151  0.33903573  0.20017516    -0.75400
C519        C  0.70503560  0.35445660  0.22194435     0.85400
N520        N  0.70686996  0.38762488  0.22162821    -0.75300
C521        C  0.68977045  0.40483403  0.20037211     0.85500
N522        N  0.67216108  0.38918053  0.17932615    -0.77100
C523        C  0.75223348  0.30522634  0.29281345     0.05000
C524        C  0.77493194  0.32302764  0.31034362     0.05000
C525        C  0.78826635  0.31054947  0.33862125     0.05000
C526        C  0.77889931  0.27960625  0.34920709     0.05000
C527        C  0.75559658  0.26206249  0.33254131     0.05000
C528        C  0.74357446  0.27343147  0.30289411     0.05000
C529        C  0.66983398  0.15573795  0.38787818     0.82900
N530        N  0.67314822  0.15510973  0.41939700    -0.75400
C531        C  0.69448646  0.17308634  0.43392450     0.85400
N532        N  0.71341097  0.19230389  0.41637962    -0.75300
C533        C  0.70943661  0.19388737  0.38415366     0.85500
N534        N  0.68774636  0.17524161  0.36988976    -0.77100
C535        C  0.45385205  0.95719198  0.24477143     0.45100
N536        N  0.49473911  0.98651412  0.24639934     0.04000
C537        C  0.58927280  0.99589067  0.37531861    -0.03800
H538        H  0.45728601  0.01136516  0.39023689     0.09500
C539        C  0.47486638  0.11305398  0.33152984    -0.04200
Co540      Co  0.52940319  0.96901724  0.30473172     0.74200
N541        N  0.49385539  0.99702341  0.35833350    -0.23400
Co542      Co  0.52786721  0.03351025  0.35768307     0.74100
C543        C  0.45803403  0.10448987  0.35935035     0.45300
N544        N  0.49559373  0.08356575  0.26084762     0.03700
N545        N  0.49406886  0.06996685  0.35315734     0.03800
N546        N  0.58587525  0.95440197  0.34059966    -0.44200
H547        H  0.46839542  0.92677708  0.28687962     0.09500
N548        N  0.49635882  0.97212171  0.33886275     0.04000
N549        N  0.56162492  0.06965303  0.35384996     0.03800
C550        C  0.59947942  0.10143547  0.35943767     0.45400
N551        N  0.49411929  0.05904419  0.24081351    -0.22800
C552        C  0.58683836  0.94690955  0.27077553    -0.03700
N553        N  0.46849317  0.98248778  0.23056526    -0.43900
N554        N  0.58522734  0.07575243  0.37277451    -0.44200
C555        C  0.60592505  0.95851833  0.24565598     0.45200
N556        N  0.56171485  0.97328944  0.33920107     0.04000
N557        N  0.56466411  0.05979927  0.24140790    -0.22800
N558        N  0.49679547  0.96584056  0.27014135    -0.23300
N559        N  0.56192370  0.08428544  0.26129906     0.03700
H560        H  0.60273021  0.04598057  0.21083510     0.09600
H561        H  0.58770834  0.13092876  0.31565561     0.09600
N562        N  0.56258878  0.99782944  0.35923116    -0.23400
N563        N  0.49614909  0.09027887  0.32917193    -0.23000
N564        N  0.56475893  0.98724947  0.24693538     0.04000
C565        C  0.45358335  0.96379721  0.36152782     0.45400
C566        C  0.46648056  0.06096419  0.22618892    -0.04300
N567        N  0.56067472  0.08975554  0.32957674    -0.23000
H568        H  0.47146175  0.13303166  0.31535053     0.09600
N569        N  0.47314018  0.95197054  0.34025268    -0.44200
H570        H  0.45731575  0.04351689  0.20958405     0.09600
C571        C  0.60633594  0.09253631  0.24145301     0.45300
C572        C  0.47291724  0.94582199  0.27000116    -0.03700
Co573      Co  0.52960251  0.02311061  0.24197640     0.73800
N574        N  0.47101283  0.10205919  0.26101182    -0.43900
C575        C  0.60441371  0.96705158  0.36229364     0.45500
N576        N  0.59112442  0.98353978  0.23124046    -0.43900
Co577      Co  0.52855881  0.08711558  0.29487751     0.73900
C578        C  0.58321203  0.11110388  0.33170513    -0.04300
C579        C  0.46688704  0.99404589  0.37372460    -0.03800
N580        N  0.56269564  0.96659802  0.27067982    -0.23300
N581        N  0.47048483  0.07719086  0.37183295    -0.44100
H582        H  0.59764135  0.01320485  0.39247310     0.09500
C583        C  0.59258338  0.06296765  0.22731472    -0.04200
Cl584      Cl  0.52878923  0.02816746  0.29979979    -0.47200
C585        C  0.45128345  0.08961722  0.24022741     0.45300
H586        H  0.59141120  0.92786588  0.28764975     0.09500
N587        N  0.58559337  0.10396669  0.26167775    -0.43900
C588        C  0.45462161  0.33019799  0.98448586     0.45100
N589        N  0.49231493  0.32558788  0.01636771     0.04000
C590        C  0.59250758  0.19875443  0.02098803    -0.03800
H591        H  0.45703704  0.17793060  0.04088074     0.09500
C592        C  0.47109193  0.23891797  0.13659638    -0.04200
Co593      Co  0.52699277  0.26638999  0.99889353     0.74200
N594        N  0.49353185  0.21037047  0.02596013    -0.23400
Co595      Co  0.52921227  0.21200201  0.06125516     0.74100
C596        C  0.45337738  0.21195171  0.12593470     0.45300
N597        N  0.49340194  0.30985616  0.11096371     0.03700
N598        N  0.49403526  0.21533136  0.09698870     0.03800
N599        N  0.58395074  0.23353682  0.98100782    -0.44200
H600        H  0.46790263  0.28565715  0.95599877     0.09500
N601        N  0.49461690  0.23106222  0.00217643     0.04000
N602        N  0.56399794  0.21770862  0.09726661     0.03800
C603        C  0.60342198  0.21670880  0.12826044     0.45400
N604        N  0.49167440  0.33060408  0.08726786    -0.22800
C605        C  0.58060836  0.30480565  0.97426227    -0.03700
N606        N  0.46831088  0.34429558  0.00990399    -0.43900
N607        N  0.59021439  0.20181971  0.10267493    -0.44200
C608        C  0.59706423  0.33314441  0.98329730     0.45200
N609        N  0.56077796  0.23271362  0.00096891     0.04000
N610        N  0.56077717  0.33183676  0.08773351    -0.22800
N611        N  0.49396953  0.30076685  0.99673501    -0.23300
N612        N  0.55892875  0.31132992  0.11163207     0.03700
H613        H  0.59624319  0.36634819  0.07509991     0.09600
H614        H  0.58645592  0.25900904  0.15766473     0.09600
N615        N  0.56434108  0.21252367  0.02490074    -0.23400
N616        N  0.49494648  0.23992957  0.11694999    -0.23000
N617        N  0.56024070  0.32676117  0.01608787     0.04000
C618        C  0.45055443  0.20936382  0.99590455     0.45400
C619        C  0.46465560  0.34639797  0.09004612    -0.04300
N620        N  0.56058659  0.24177244  0.11757723    -0.23000
H621        H  0.46598262  0.25595965  0.15533578     0.09600
N622        N  0.47006637  0.23091251  0.98402825    -0.44200
H623        H  0.45565685  0.36404366  0.07359171     0.09600
C624        C  0.60111220  0.33526374  0.12056397     0.45300
C625        C  0.47164033  0.30222934  0.97549101    -0.03700
Co626      Co  0.52632162  0.33035987  0.05194701     0.73800
N627        N  0.46961668  0.31053979  0.13006300    -0.43900
C628        C  0.60536011  0.21339975  0.99151525     0.45500
N629        N  0.58355656  0.34629698  0.00934872    -0.43900
Co630      Co  0.52689218  0.27578065  0.11453532     0.73900
C631        C  0.58345418  0.24205158  0.13838303    -0.04300
C632        C  0.46600707  0.19508516  0.02392593    -0.03800
N633        N  0.55879629  0.30223559  0.99605648    -0.23300
N634        N  0.46868466  0.19776400  0.10132824    -0.44100
H635        H  0.60326004  0.18208135  0.03728013     0.09500
C636        C  0.58729295  0.34845663  0.09132235    -0.04200
Cl637      Cl  0.52741747  0.27109868  0.05667522    -0.47200
C638        C  0.45033492  0.33245198  0.11854584     0.45300
H639        H  0.58446572  0.28866957  0.95443954     0.09500
N640        N  0.58201271  0.31296344  0.13154012    -0.43900
C641        C  0.35926129  0.20216687  0.23400161     0.82900
N642        N  0.36921036  0.21230181  0.20468296    -0.75400
C643        C  0.38611371  0.19192457  0.18585708     0.85400
N644        N  0.39348900  0.16237818  0.19652674    -0.75300
C645        C  0.38488681  0.15203621  0.22534832     0.85500
N646        N  0.36796805  0.17203067  0.24462580    -0.77100
C647        C  0.35679929  0.20636317  0.88590914     0.82900
N648        N  0.36708157  0.17697906  0.87453890    -0.75400
C649        C  0.38492193  0.15742335  0.89333220     0.85400
N650        N  0.39279209  0.16742774  0.92247844    -0.75300
C651        C  0.38391198  0.19617741  0.93404662     0.85500
N652        N  0.36605919  0.21618184  0.91570250    -0.77100
C653        C  0.66839312  0.20404974  0.92384633     0.82900
N654        N  0.66240733  0.17378305  0.91425116    -0.75400
C655        C  0.66996144  0.16315096  0.88521360     0.85400
N656        N  0.68444111  0.18362217  0.86439977    -0.75300
C657        C  0.69184201  0.21468239  0.87353761     0.85500
N658        N  0.68296066  0.22505250  0.90340547    -0.77100
C659        C  0.60615817  0.96239138  0.87262176     0.45100
N660        N  0.56536110  0.99162439  0.87089603     0.04000
C661        C  0.46623311  0.99607516  0.74538644    -0.03800
H662        H  0.59590511  0.01487163  0.72251396     0.09500
C663        C  0.58250539  0.11481918  0.78364833    -0.04200
Co664      Co  0.53000744  0.97276686  0.81333523     0.74200
N665        N  0.56220685  0.00080630  0.75778094    -0.23400
Co666      Co  0.52716748  0.03631825  0.75974004     0.74100
C667        C  0.59781917  0.10546096  0.75511585     0.45300
N668        N  0.56261862  0.08820201  0.85507391     0.03700
N669        N  0.56069498  0.07294308  0.76236710     0.03800
N670        N  0.47356607  0.95446131  0.77899644    -0.44200
H671        H  0.59203931  0.93212466  0.83013346     0.09500
N672        N  0.56194962  0.97675815  0.77834898     0.04000
N673        N  0.49295993  0.07235921  0.76485016     0.03800
C674        C  0.45515577  0.10506756  0.76025898     0.45400
N675        N  0.56515785  0.06413416  0.87542133    -0.22800
C676        C  0.47400762  0.94962204  0.84917925    -0.03700
N677        N  0.59125134  0.98729509  0.88723396    -0.43900
N678        N  0.46801113  0.07797959  0.74764917    -0.44200
C679        C  0.45518116  0.96119391  0.87457649     0.45200
N680        N  0.49663194  0.97484008  0.77963831     0.04000
N681        N  0.49473620  0.06366992  0.87687868    -0.22800
N682        N  0.56353755  0.97113964  0.84693680    -0.23300
N683        N  0.49628411  0.08800505  0.85671112     0.03700
H684        H  0.45809719  0.04905961  0.90878204     0.09600
H685        H  0.46972789  0.13518397  0.80282796     0.09600
N686        N  0.49350876  0.99948509  0.76005814    -0.23400
N687        N  0.56030311  0.09313675  0.78663449    -0.23000
N688        N  0.49564118  0.99090961  0.87193092     0.04000
C689        C  0.60363822  0.96941326  0.75345847     0.45400
C690        C  0.59308298  0.06715846  0.88940742    -0.04300
N691        N  0.49555275  0.09334853  0.78828085    -0.23000
H692        H  0.58708814  0.13488452  0.79941745     0.09600
N693        N  0.58587274  0.95756075  0.77627985    -0.44200
H694        H  0.60304036  0.05037670  0.90611469     0.09600
C695        C  0.45230520  0.09509202  0.87801838     0.45300
C696        C  0.58755245  0.95133976  0.84692520    -0.03700
Co697      Co  0.53021783  0.02758629  0.87567210     0.73800
N698        N  0.58656663  0.10748854  0.85418975    -0.43900
C699        C  0.45341469  0.96585836  0.75817085     0.45500
N700        N  0.46971018  0.98683336  0.88827850    -0.43900
Co701      Co  0.52874738  0.09087178  0.82199047     0.73900
C702        C  0.47333333  0.11519604  0.78664642    -0.04300
C703        C  0.58822381  0.99818034  0.74056700    -0.03800
N704        N  0.49766963  0.96988843  0.84840281    -0.23300
N705        N  0.58337728  0.07953178  0.74237369    -0.44100
H706        H  0.45609684  0.01314052  0.72903677     0.09500
C707        C  0.46726120  0.06617577  0.89189473    -0.04200
Cl708      Cl  0.52899822  0.03186774  0.81769476    -0.47200
C709        C  0.60711722  0.09610883  0.87461840     0.45300
H710        H  0.46949427  0.93017490  0.83268098     0.09500
N711        N  0.47201762  0.10696584  0.85692605    -0.43900
C712        C  0.66900962  0.36105484  0.93012238     0.82900
N713        N  0.67407446  0.39287028  0.93237060    -0.75400
C714        C  0.69639481  0.40724439  0.91571659     0.85400
N715        N  0.71463671  0.38923678  0.89613502    -0.75300
C716        C  0.70915318  0.35671443  0.89294071     0.85500
N717        N  0.68635883  0.34260472  0.91027197    -0.77100
C718        C  0.85168646  0.36458929  0.72183457     0.82900
N719        N  0.86131132  0.39476289  0.73122917    -0.75400
C720        C  0.87981154  0.41267583  0.71177919     0.85400
N721        N  0.88911386  0.40024281  0.68401975    -0.75300
C722        C  0.88109133  0.37043663  0.67465547     0.85500
N723        N  0.86253798  0.35201576  0.69370228    -0.77100
C724        C  0.75543647  0.30514197  0.82406831     0.05000
C725        C  0.77931974  0.32208981  0.80764699     0.05000
C726        C  0.79047514  0.31086539  0.77800812     0.05000
C727        C  0.77843708  0.28171417  0.76553521     0.05000
C728        C  0.75413888  0.26475195  0.78125161     0.05000
C729        C  0.74389682  0.27497210  0.81217409     0.05000
C730        C  0.69013217  0.17838174  0.67591984     0.82900
N731        N  0.70906188  0.19815205  0.69322988    -0.75400
C732        C  0.70526565  0.20017810  0.72563313     0.85400
N733        N  0.68365023  0.18156303  0.74006070    -0.75300
C734        C  0.66570185  0.16171421  0.72241558     0.85500
N735        N  0.66895492  0.16053330  0.69087015    -0.77100
C736        C  0.81094010  0.96474150  0.64086451     0.45100
N737        N  0.80211399  0.99798084  0.60342660     0.04000
C738        C  0.67886496  0.09725697  0.58675362    -0.03800
H739        H  0.66618241  0.95279134  0.57501276     0.09500
C740        C  0.72192755  0.96332612  0.48368405    -0.04200
Co741      Co  0.74460244  0.03306146  0.61698677     0.74200
N742        N  0.69357882  0.99367323  0.59079432    -0.23400
Co743      Co  0.69410973  0.02861273  0.55403031     0.74100
C744        C  0.69723610  0.94448890  0.49620103     0.45300
N745        N  0.78795907  0.99047836  0.50837226     0.03700
N746        N  0.69853471  0.98995177  0.52088452     0.03800
N747        N  0.71183731  0.09458478  0.62754034    -0.44200
H748        H  0.76695933  0.97762782  0.66725512     0.09500
N749        N  0.71273877  0.99663371  0.61481868     0.04000
N750        N  0.69906235  0.06315437  0.51746981     0.03800
C751        C  0.69979965  0.10754301  0.49126702     0.45400
N752        N  0.80668839  0.99098401  0.53295771    -0.22800
C753        C  0.77915172  0.09455168  0.63540070    -0.03700
N754        N  0.82222334  0.97611894  0.61315117    -0.43900
N755        N  0.68552859  0.09191485  0.51522079    -0.44200
C756        C  0.80513186  0.11170949  0.62326836     0.45200
N757        N  0.71144646  0.06733371  0.61133689     0.04000
N758        N  0.80720828  0.06245002  0.52693402    -0.22800
N759        N  0.77859607  0.00022108  0.62285808    -0.23300
N760        N  0.78844272  0.05924512  0.50268627     0.03700
H761        H  0.84001517  0.09976841  0.53883568     0.09600
H762        H  0.73968077  0.09156856  0.46054792     0.09600
N763        N  0.69252980  0.06768525  0.58704214    -0.23400
N764        N  0.72179612  0.99028834  0.50098128    -0.23000
N765        N  0.80058330  0.06819597  0.59689832     0.04000
C766        C  0.69605443  0.94828548  0.61955513     0.45400
C767        C  0.82175641  0.96258218  0.53379018    -0.04300
N768        N  0.72184454  0.06023775  0.49707476    -0.23000
H769        H  0.73846568  0.95678005  0.46572687     0.09600
N770        N  0.71479642  0.97028009  0.63228110    -0.44200
H771        H  0.83754875  0.95484136  0.55199593     0.09600
C772        C  0.81260238  0.10240033  0.49223440     0.45300
C773        C  0.78226702  0.98026723  0.64724828    -0.03700
Co774      Co  0.80542063  0.02985821  0.56494956     0.73800
N775        N  0.78932241  0.96341396  0.49201425    -0.43900
C776        C  0.69251189  0.11501911  0.61357647     0.45500
N777        N  0.81762276  0.09454660  0.59929207    -0.43900
Co778      Co  0.75496972  0.02502416  0.50153018     0.73900
C779        C  0.72285101  0.08636595  0.47855601    -0.04300
C780        C  0.68123754  0.96364735  0.59226242    -0.03800
N781        N  0.77754190  0.06831632  0.61717177    -0.23300
N782        N  0.68291988  0.96228135  0.51888367    -0.44100
H783        H  0.66318456  0.10614196  0.56899441     0.09500
C784        C  0.82356453  0.08960798  0.52247901    -0.04200
Cl785      Cl  0.74981410  0.02912875  0.55935822    -0.47200
C786        C  0.80981753  0.94474495  0.50652919     0.45300
H787        H  0.76341817  0.10137773  0.65405212     0.09500
N788        N  0.79107523  0.08241659  0.48151797    -0.43900
C789        C  0.86750596  0.22746560  0.45691357     0.82900
N790        N  0.85317343  0.24504476  0.43375423    -0.75400
C791        C  0.82489701  0.23547726  0.42316870     0.85400
N792        N  0.81184519  0.20827446  0.43531762    -0.75300
C793        C  0.82656119  0.19136503  0.45829696     0.85500
N794        N  0.85404640  0.20097102  0.46872061    -0.77100
C795        C  0.82551329  0.20121403  0.65090840     0.82900
N796        N  0.85415921  0.20965272  0.64315761    -0.75400
C797        C  0.86827179  0.23400337  0.65827373     0.85400
N798        N  0.85351509  0.25036645  0.68200446    -0.75300
C799        C  0.82412428  0.24195120  0.68966959     0.85500
N800        N  0.81046118  0.21691436  0.67441710    -0.77100
C801        C  0.36679482  0.13324315  0.75482699     0.82900
N802        N  0.35137723  0.11629364  0.73294985    -0.75400
C803        C  0.32229386  0.12361572  0.72585033     0.85400
N804        N  0.30804745  0.14875002  0.74066652    -0.75300
C805        C  0.32323457  0.16576799  0.76352040     0.85500
N806        N  0.35298471  0.15830742  0.77026275    -0.77100
C807        C  0.26529464  0.31158993  0.81810120     0.05000
C808        C  0.28859079  0.29544605  0.83619893     0.05000
C809        C  0.29786613  0.26312927  0.82855019     0.05000
C810        C  0.28489507  0.24843059  0.80100085     0.05000
C811        C  0.26198123  0.26474208  0.78259720     0.05000
C812        C  0.25303983  0.29709374  0.79014061     0.05000
C813        C  0.30267877  0.95293859  0.48712866     0.45100
N814        N  0.29742184  0.98482168  0.52636708     0.04000
C815        C  0.17726529  0.99799829  0.62746089    -0.03800
H816        H  0.16385082  0.01560008  0.48436926     0.09500
C817        C  0.22137851  0.10907275  0.50137053    -0.04200
Co818      Co  0.24077417  0.96851948  0.56155073     0.74200
N819        N  0.19020386  0.99802629  0.52468714    -0.23400
Co820      Co  0.19177596  0.03412085  0.56097408     0.74100
C821        C  0.19759319  0.09710649  0.48121103     0.45300
N822        N  0.28658263  0.08185563  0.52702071     0.03700
N823        N  0.19734715  0.06970645  0.52459098     0.03800
N824        N  0.20917170  0.95564655  0.62213370    -0.44200
H825        H  0.25986779  0.92404722  0.49926626     0.09500
N826        N  0.20801301  0.97243157  0.52739044     0.04000
N827        N  0.19698986  0.06992128  0.59687262     0.03800
C828        C  0.19675703  0.09686236  0.64043481     0.45400
N829        N  0.30478172  0.05643067  0.52563342    -0.22800
C830        C  0.27660422  0.94355727  0.61812675    -0.03700
N831        N  0.31520365  0.97889778  0.50158501    -0.43900
N832        N  0.18232351  0.07278360  0.62450858    -0.44200
C833        C  0.30397668  0.95283652  0.63446994     0.45200
N834        N  0.20844866  0.97328751  0.59615308     0.04000
N835        N  0.30454078  0.05648657  0.59655149    -0.22800
N836        N  0.27396470  0.96481224  0.52769946    -0.23300
N837        N  0.28642330  0.08197483  0.59501310     0.03700
H838        H  0.33431685  0.03911834  0.63398442     0.09600
H839        H  0.23758020  0.12739712  0.62606200     0.09600
N840        N  0.19008623  0.99854452  0.59799239    -0.23400
N841        N  0.22051949  0.09000865  0.52676503    -0.23000
N842        N  0.29787085  0.98490388  0.59560522     0.04000
C843        C  0.19080068  0.96778464  0.48009300     0.45400
C844        C  0.32024919  0.05775482  0.49798723    -0.04300
N845        N  0.22023912  0.09015284  0.59506376    -0.23000
H846        H  0.23822267  0.12746771  0.49637119     0.09600
N847        N  0.20865209  0.95408471  0.50187399    -0.44200
H848        H  0.33589888  0.03964207  0.48903993     0.09600
C849        C  0.30776878  0.08691339  0.64000189     0.45300
C850        C  0.27579851  0.94341078  0.50418255    -0.03700
Co851      Co  0.30248946  0.02073294  0.56102456     0.73800
N852        N  0.28867607  0.10080890  0.50205917    -0.43900
C853        C  0.19062091  0.96941940  0.64331087     0.45500
N854        N  0.31620222  0.97881356  0.61985043    -0.43900
Co855      Co  0.25345126  0.08666809  0.56097395     0.73900
C856        C  0.22080619  0.10904372  0.62066403    -0.04300
C857        C  0.17795391  0.99711100  0.49505175    -0.03800
N858        N  0.27433050  0.96503616  0.59479366    -0.23300
N859        N  0.18299896  0.07279372  0.49677377    -0.44100
H860        H  0.16248187  0.01626566  0.63748188     0.09500
C861        C  0.31919853  0.05749117  0.62466659    -0.04200
Cl862      Cl  0.24711661  0.02753354  0.56112309    -0.47200
C863        C  0.30918627  0.08732347  0.48274143     0.45300
H864        H  0.26067840  0.92428323  0.62332769     0.09500
N865        N  0.28786199  0.10064042  0.62026825    -0.43900
C866        C  0.95209500  0.35357666  0.49280597     0.45100
N867        N  0.99436322  0.35189672  0.51925021     0.04000
C868        C  0.08871124  0.21985538  0.52251081    -0.03800
H869        H  0.95741441  0.20404228  0.53950942     0.09500
C870        C  0.97607355  0.26443920  0.64109817    -0.04200
Co871      Co  0.02850533  0.29286062  0.49965058     0.74200
N872        N  0.99338557  0.23777301  0.52660286    -0.23400
Co873      Co  0.02832466  0.23794341  0.56186314     0.74100
C874        C  0.95697699  0.23843796  0.63072968     0.45300
N875        N  0.99745433  0.33591448  0.61399133     0.03700
N876        N  0.99486577  0.24261290  0.59842373     0.03800
N877        N  0.08429470  0.25596416  0.48265241    -0.44200
H878        H  0.96571661  0.31163507  0.46112116     0.09500
N879        N  0.99552259  0.25814598  0.50262139     0.04000
N880        N  0.06349581  0.24132709  0.59655403     0.03800
C881        C  0.10377103  0.23660101  0.62496222     0.45400
N882        N  0.99551818  0.35638774  0.59006656    -0.22800
C883        C  0.08558523  0.32739321  0.47733521    -0.03700
N884        N  0.96769828  0.36762086  0.51717843    -0.43900
N885        N  0.08847811  0.22324200  0.60017328    -0.44200
C886        C  0.10527615  0.35234736  0.48899285     0.45200
N887        N  0.06083485  0.25744754  0.50215361     0.04000
N888        N  0.06594540  0.35572857  0.58881342    -0.22800
N889        N  0.99582022  0.32823328  0.49827060    -0.23300
N890        N  0.06412340  0.33530452  0.61275657     0.03700
H891        H  0.10344075  0.38662853  0.57346761     0.09600
H892        H  0.09198987  0.27986214  0.65587964     0.09600
N893        N  0.06228053  0.23660161  0.52579755    -0.23400
N894        N  0.99805442  0.26606800  0.61938345    -0.23000
N895        N  0.06451179  0.35113037  0.51788880     0.04000
C896        C  0.95311030  0.23453982  0.49364009     0.45400
C897        C  0.96758094  0.37068368  0.59197286    -0.04300
N898        N  0.06284145  0.26542503  0.61712998    -0.23000
H899        H  0.97279044  0.28093178  0.66076092     0.09600
N900        N  0.97242086  0.25670894  0.48268689    -0.44200
H901        H  0.95798030  0.38732136  0.57492157     0.09600
C902        C  0.10900735  0.35519501  0.61848693     0.45300
C903        C  0.97102475  0.32853237  0.47987244    -0.03700
Co904      Co  0.03013288  0.35571387  0.55402003     0.73800
N905        N  0.97273779  0.33513551  0.63198124    -0.43900
C906        C  0.10301228  0.23331668  0.49381346     0.45500
N907        N  0.09111286  0.36663539  0.51423131    -0.43900
Co908      Co  0.03064270  0.30094878  0.61616379     0.73900
C909        C  0.08667259  0.26355835  0.63657732    -0.04300
C910        C  0.96661240  0.22168325  0.52316731    -0.03800
N911        N  0.06179994  0.32742774  0.49710169    -0.23300
N912        N  0.96940765  0.22579745  0.60377419    -0.44100
H913        H  0.09742698  0.20186338  0.53875631     0.09500
C914        C  0.09397968  0.36989024  0.59053281    -0.04200
Cl915      Cl  0.02936036  0.29684502  0.55791587    -0.47200
C916        C  0.95257819  0.35592952  0.61978925     0.45300
H917        H  0.08968011  0.31041896  0.45827205     0.09500
N918        N  0.08876742  0.33462785  0.63075440    -0.43900
C919        C  0.17602537  0.21106282  0.44148479     0.82900
N920        N  0.19372447  0.22815563  0.42081033    -0.75400
C921        C  0.21306184  0.21208007  0.40062646     0.85400
N922        N  0.21439710  0.17884279  0.40156542    -0.75300
C923        C  0.19570362  0.16232753  0.42197815     0.85500
N924        N  0.17712182  0.17872472  0.44155249    -0.77100
C925        C  0.19929992  0.35483696  0.72929455     0.82900
N926        N  0.19167036  0.34533776  0.69894411    -0.75400
C927        C  0.17565787  0.36598083  0.67953761     0.85400
N928        N  0.16686833  0.39494133  0.69064528    -0.75300
C929        C  0.17296265  0.40441188  0.72039968     0.85500
N930        N  0.18892279  0.38425249  0.74020905    -0.77100
C931        C  0.17635792  0.21002002  0.67538088     0.82900
N932        N  0.17644216  0.17770413  0.67704742    -0.75400
C933        C  0.19428732  0.16192702  0.69778082     0.85400
N934        N  0.21316328  0.17896051  0.71748165    -0.75300
C935        C  0.21273985  0.21214244  0.71661144     0.85500
N936        N  0.19420075  0.22767304  0.69540252    -0.77100
C937        C  0.69194318  0.21151399  0.24275310     0.82900
N938        N  0.68428724  0.18052470  0.25203495    -0.75400
C939        C  0.66926571  0.16018471  0.23137589     0.85400
N940        N  0.66152324  0.17094482  0.20247592    -0.75300
C941        C  0.66783063  0.20112406  0.19291529     0.85500
N942        N  0.68282833  0.22190383  0.21312076    -0.77100
C943        C  0.18771368  0.62797988  0.25355330     0.82900
N944        N  0.20111073  0.64979723  0.27372252    -0.75400
C945        C  0.22469772  0.66868905  0.26284600     0.85400
N946        N  0.23390561  0.66601540  0.23213173    -0.75300
C947        C  0.21989960  0.64464349  0.21257854     0.85500
N948        N  0.19719750  0.62585448  0.22334979    -0.77100
C949        C  0.35943793  0.39873217  0.19731349     0.82900
N950        N  0.34151314  0.38067986  0.21718666    -0.75400
C951        C  0.34320165  0.34747878  0.21600114     0.85400
N952        N  0.36195909  0.33299116  0.19413614    -0.75300
C953        C  0.37884425  0.35162710  0.17400403     0.85500
N954        N  0.37753426  0.38389123  0.17611494    -0.77100
C955        C  0.37137165  0.13607164  0.36917692     0.82900
N956        N  0.35713727  0.16027171  0.35299190    -0.75400
C957        C  0.32726170  0.16732768  0.35950707     0.85400
N958        N  0.31224533  0.15056302  0.38265406    -0.75300
C959        C  0.32694725  0.12623046  0.39819680     0.85500
N960        N  0.35621362  0.11938409  0.39141483    -0.77100
C961        C  0.20041415  0.35503677  0.38278456     0.82900
N962        N  0.19065456  0.34535832  0.41233295    -0.75400
C963        C  0.17477716  0.36646941  0.43134499     0.85400
N964        N  0.16819380  0.39616795  0.42060061    -0.75300
C965        C  0.17645935  0.40592284  0.39150219     0.85500
N966        N  0.19231906  0.38525919  0.37205401    -0.77100
C967        C  0.26949272  0.30967971  0.29798246     0.05000
C968        C  0.25569437  0.29568330  0.32547960     0.05000
C969        C  0.26416676  0.26358354  0.33438125     0.05000
C970        C  0.28816201  0.24718500  0.31764816     0.05000
C971        C  0.30214764  0.26117959  0.29021776     0.05000
C972        C  0.29352930  0.29330268  0.28124571     0.05000
C973        C  0.21840392  0.33287253  0.36234754    -0.10600
C974        C  0.23434902  0.31521894  0.34547562    -0.12100
C975        C  0.31216491  0.19376504  0.34323875    -0.10600
C976        C  0.30044117  0.21706510  0.33060728    -0.12100
C977        C  0.32515009  0.32746665  0.23773431    -0.10600
C978        C  0.31064696  0.31086588  0.25646651    -0.12100
C979        C  0.23197187  0.23051702  0.37833513    -0.10600
C980        C  0.24694354  0.24626884  0.35928865    -0.12100
C981        C  0.16088465  0.35671322  0.65014982    -0.10600
C982        C  0.13990163  0.35670914  0.63114882    -0.12100
C983        C  0.13625060  0.35629878  0.47737605    -0.10600
C984        C  0.15801883  0.35719548  0.45944898    -0.12100
C985        C  0.13336477  0.22862258  0.63693546    -0.10600
C986        C  0.15542233  0.22389237  0.65332179    -0.12100
C987        C  0.15458510  0.22528854  0.46300272    -0.10600
C988        C  0.13267289  0.22871211  0.48005851    -0.12100
C989        C  0.19740420  0.12822518  0.42848656    -0.10600
C990        C  0.19494428  0.10748747  0.44862713    -0.12100
C991        C  0.19561715  0.12763729  0.69295403    -0.10600
C992        C  0.19357245  0.10669875  0.67303974    -0.12100
C993        C  0.31453692  0.11038292  0.42520229    -0.10600
C994        C  0.31188729  0.09754986  0.45058140    -0.12100
C995        C  0.23144956  0.23102179  0.73837542    -0.10600
C996        C  0.24595960  0.24702520  0.75741000    -0.12100
C997        C  0.23262320  0.31613846  0.76853002    -0.10600
C998        C  0.21716201  0.33319956  0.75054465    -0.12100
C999        C  0.30864694  0.19330389  0.77860594    -0.10600
C1000       C  0.29708357  0.21749617  0.78978889    -0.12100
C1001       C  0.31023926  0.10822922  0.69842079    -0.10600
C1002       C  0.30868491  0.09609691  0.67259138    -0.12100
C1003       C  0.92559668  0.23686652  0.64044526    -0.10600
C1004       C  0.89977828  0.23865452  0.65037681    -0.12100
C1005       C  0.89770849  0.23401603  0.46859783    -0.10600
C1006       C  0.92245076  0.23306593  0.48136983    -0.12100
C1007       C  0.81054622  0.14475281  0.62961505    -0.10600
C1008       C  0.81444696  0.17188866  0.63828639    -0.12100
C1009       C  0.81436114  0.13465267  0.48087207    -0.10600
C1010       C  0.81597824  0.16118317  0.46968983    -0.12100
C1011       C  0.69429782  0.16982743  0.64302727    -0.10600
C1012       C  0.69205191  0.14864698  0.62317841    -0.12100
C1013       C  0.79310944  0.26821122  0.73737091    -0.10600
C1014       C  0.80778847  0.25739674  0.71537001    -0.12100
C1015       C  0.73779832  0.23964091  0.76323252    -0.10600
C1016       C  0.72394071  0.22150075  0.74540294    -0.12100
C1017       C  0.89870754  0.35826483  0.64816599    -0.10600
C1018       C  0.92124423  0.35702819  0.63125563    -0.12100
C1019       C  0.83105020  0.34548187  0.74245977    -0.10600
C1020       C  0.81327850  0.32995831  0.75930783    -0.12100
C1021       C  0.72699927  0.33710845  0.87093490    -0.10600
C1022       C  0.74051773  0.32110307  0.85107544    -0.12100
C1023       C  0.62366132  0.12225771  0.74310724    -0.10600
C1024       C  0.64383719  0.14046453  0.73601363    -0.12100
C1025       C  0.39840556  0.12555431  0.75824514    -0.10600
C1026       C  0.42417325  0.11544111  0.75705478    -0.12100
C1027       C  0.70861109  0.23665979  0.85109895    -0.10600
C1028       C  0.72349398  0.25410752  0.83260873    -0.12100
C1029       C  0.63698688  0.11128219  0.87683480    -0.10600
C1030       C  0.65646361  0.13232592  0.87672265    -0.12100
C1031       C  0.31979461  0.24445913  0.84918498    -0.10600
C1032       C  0.33684758  0.22755424  0.86591860    -0.12100
C1033       C  0.42195019  0.10923612  0.88119830    -0.10600
C1034       C  0.40099924  0.12868256  0.88260340    -0.12100
C1035       C  0.34038225  0.22390715  0.25420401    -0.10600
C1036       C  0.32392034  0.24162748  0.27057687    -0.12100
C1037       C  0.65391393  0.21282182  0.95386436    -0.10600
C1038       C  0.63480413  0.21198292  0.97510224    -0.12100
C1039       C  0.41999748  0.20630777  0.98247838    -0.10600
C1040       C  0.39917992  0.20558720  0.96322507    -0.12100
C1041       C  0.42073244  0.33661579  0.13258569    -0.10600
C1042       C  0.39941489  0.33907409  0.15060722    -0.12100
C1043       C  0.40243250  0.20197891  0.15769835    -0.10600
C1044       C  0.42351893  0.20473325  0.13908438    -0.12100
C1045       C  0.63289250  0.21153192  0.14340077    -0.10600
C1046       C  0.65275994  0.21054714  0.16366842    -0.12100
C1047       C  0.64555887  0.34830771  0.95002714    -0.10600
C1048       C  0.62429170  0.34309598  0.96738985    -0.12100
C1049       C  0.63617555  0.10808366  0.23941198    -0.10600
C1050       C  0.65557898  0.12931159  0.23977613    -0.12100
C1051       C  0.42080391  0.10321532  0.23713050    -0.10600
C1052       C  0.39998560  0.12271966  0.23570494    -0.12100
C1053       C  0.42811827  0.11691277  0.36485393    -0.10600
C1054       C  0.40276702  0.12807837  0.36500268    -0.12100
C1055       C  0.69992771  0.16413064  0.46613330    -0.10600
C1056       C  0.69887790  0.14152483  0.48415143    -0.12100
C1057       C  0.64777028  0.13447957  0.37486792    -0.10600
C1058       C  0.62682102  0.11677891  0.36930149    -0.12100
C1059       C  0.70894542  0.23375734  0.26467925    -0.10600
C1060       C  0.72374576  0.25205373  0.28239864    -0.12100
C1061       C  0.72777484  0.21531406  0.36484904    -0.10600
C1062       C  0.74125629  0.23481573  0.34856832    -0.12100
C1063       C  0.80897714  0.25279251  0.39808957    -0.10600
C1064       C  0.79460357  0.26515662  0.37653510    -0.12100
C1065       C  0.72235933  0.33570141  0.24540800    -0.10600
C1066       C  0.73633708  0.32089138  0.26596996    -0.12100
C1067       C  0.65054273  0.34350826  0.15504491    -0.10600
C1068       C  0.62997598  0.34047659  0.13609168    -0.12100
C1069       C  0.63656379  0.94626132  0.24061708    -0.10600
C1070       C  0.65793897  0.92755986  0.23899579    -0.12100
C1071       C  0.40115278  0.92701639  0.23782583    -0.10600
C1072       C  0.42306324  0.94501897  0.23993785    -0.12100
C1073       C  0.65756890  0.84810039  0.16187247    -0.10600
C1074       C  0.63651050  0.84707263  0.14299698    -0.12100
C1075       C  0.42180608  0.85113104  0.13934123    -0.10600
C1076       C  0.39960985  0.85210234  0.15670749    -0.12100
C1077       C  0.65447202  0.71925163  0.15636027    -0.10600
C1078       C  0.63274119  0.72145452  0.13876470    -0.12100
C1079       C  0.72869705  0.80848912  0.28070821    -0.10600
C1080       C  0.71386347  0.82589874  0.26248406    -0.12100
C1081       C  0.73089568  0.72716894  0.24247500    -0.10600
C1082       C  0.74511487  0.74175473  0.26294254    -0.12100
C1083       C  0.81722380  0.73453076  0.35602643    -0.10600
C1084       C  0.83497551  0.71912129  0.37290441    -0.12100
C1085       C  0.69225914  0.89190280  0.46478435    -0.10600
C1086       C  0.69152455  0.91186193  0.48577526    -0.12100
C1087       C  0.65565346  0.93592405  0.37044619    -0.10600
C1088       C  0.63427670  0.95391652  0.36703474    -0.12100
C1089       C  0.74262706  0.82593785  0.34774071    -0.10600
C1090       C  0.72814791  0.84566759  0.36317633    -0.12100
C1091       C  0.69862303  0.60444065  0.17173087    -0.10600
C1092       C  0.69967751  0.62440715  0.19263766    -0.12100
C1093       C  0.69168791  0.46005059  0.17477574    -0.10600
C1094       C  0.69271097  0.43892470  0.19460245    -0.12100
C1095       C  0.70038494  0.45901280  0.94666211    -0.10600
C1096       C  0.70242291  0.43990073  0.92506818    -0.12100
C1097       C  0.79874857  0.71273143  0.29337027    -0.10600
C1098       C  0.81293486  0.69077701  0.28104494    -0.12100
C1099       C  0.82427931  0.62318954  0.18745323    -0.10600
C1100       C  0.82190103  0.61120406  0.16173650    -0.12100
C1101       C  0.78706318  0.35310987  0.29791879    -0.10600
C1102       C  0.80043318  0.37620280  0.28720034    -0.12100
C1103       C  0.81369451  0.44798879  0.19848071    -0.10600
C1104       C  0.81218583  0.45579926  0.17130386    -0.12100
C1105       C  0.24429899  0.36299939  0.27319944    -0.10600
C1106       C  0.25692272  0.33978835  0.28512212    -0.12100
C1107       C  0.89977978  0.61631396  0.26536586    -0.10600
C1108       C  0.92427793  0.60303517  0.26378198    -0.12100
C1109       C  0.92061502  0.44619104  0.26926304    -0.10600
C1110       C  0.89429026  0.43789892  0.27019723    -0.12100
C1111       C  0.13970322  0.45348765  0.38044477    -0.10600
C1112       C  0.16118629  0.43487861  0.38092195    -0.12100
C1113       C  0.14833088  0.42022539  0.25326807    -0.10600
C1114       C  0.12267801  0.43052682  0.25473491    -0.12100
C1115       C  0.13780623  0.59373959  0.26031492    -0.10600
C1116       C  0.16153538  0.60867023  0.26142219    -0.12100
C1117       C  0.90285551  0.62514428  0.38852692    -0.10600
C1118       C  0.92543443  0.60853479  0.38515504    -0.12100
C1119       C  0.23342602  0.63037790  0.15444320    -0.10600
C1120       C  0.22874215  0.64042054  0.18057921    -0.12100
C1121       C  0.23875688  0.46952046  0.17578388    -0.10600
C1122       C  0.23653700  0.45475517  0.20021212    -0.12100
C1123       C  0.35742904  0.45454950  0.17316096    -0.10600
C1124       C  0.35671418  0.43304141  0.19262848    -0.12100
C1125       C  0.42365966  0.72138907  0.14353314    -0.10600
C1126       C  0.40197851  0.71770328  0.16092632    -0.12100
C1127       C  0.35289052  0.62266948  0.19168358    -0.10600
C1128       C  0.35560050  0.60236434  0.17121009    -0.12100
C1129       C  0.25283578  0.71577606  0.29430693    -0.10600
C1130       C  0.23939824  0.69296471  0.28254540    -0.12100
C1131       C  0.30608797  0.74161571  0.26064093    -0.10600
C1132       C  0.32083851  0.72544336  0.24175552    -0.12100
C1133       C  0.32176648  0.81068802  0.27012027    -0.10600
C1134       C  0.33829594  0.82781918  0.25327712    -0.12100
C1135       C  0.23471737  0.74465880  0.35448213    -0.10600
C1136       C  0.21910550  0.72807357  0.37265688    -0.12100
C1137       C  0.13724669  0.61014252  0.38462125    -0.10600
C1138       C  0.15837160  0.62866203  0.38863998    -0.12100
C1139       C  0.65428483  0.84721398  0.95924864    -0.10600
C1140       C  0.63499070  0.84709635  0.98021272    -0.12100
C1141       C  0.65532416  0.92751424  0.88198023    -0.10600
C1142       C  0.63545714  0.94788228  0.87964126    -0.12100
C1143       C  0.42197181  0.85542113  0.98558697    -0.10600
C1144       C  0.40143856  0.85609526  0.96604068    -0.12100
C1145       C  0.40337554  0.93007380  0.88325851    -0.10600
C1146       C  0.42480399  0.94853304  0.88038176    -0.12100
C1147       C  0.24048612  0.61252286  0.91943319    -0.10600
C1148       C  0.24291208  0.60407264  0.94637381    -0.12100
C1149       C  0.23959706  0.36575290  0.84126244    -0.10600
C1150       C  0.25210498  0.34209684  0.82978057    -0.12100
C1151       C  0.23037475  0.43984315  0.93123657    -0.10600
C1152       C  0.23169549  0.45197021  0.95711203    -0.12100
C1153       C  0.89662609  0.44084225  0.72188144    -0.10600
C1154       C  0.91921185  0.45767681  0.72448575    -0.12100
C1155       C  0.15554969  0.43211677  0.73088794    -0.10600
C1156       C  0.13351862  0.44997337  0.73235752    -0.12100
C1157       C  0.15478197  0.62522963  0.85497835    -0.10600
C1158       C  0.12884683  0.61562722  0.85542798    -0.12100
C1159       C  0.12932194  0.45545407  0.85358726    -0.10600
C1160       C  0.15410404  0.44257483  0.85354920    -0.12100
C1161       C  0.16077654  0.62519978  0.73618899    -0.10600
C1162       C  0.13940593  0.60628879  0.73572570    -0.12100
C1163       C  0.25733380  0.71749315  0.82793943    -0.10600
C1164       C  0.24468439  0.69334213  0.83743656    -0.12100
C1165       C  0.23443564  0.74623755  0.77110264    -0.10600
C1166       C  0.21851264  0.72787861  0.75490459    -0.12100
C1167       C  0.32389921  0.81397040  0.85168907    -0.10600
C1168       C  0.34070851  0.83080404  0.86861398    -0.12100
C1169       C  0.31445189  0.93576802  0.69280556    -0.10600
C1170       C  0.31003665  0.94374164  0.66606658    -0.12100
C1171       C  0.39742776  0.94288435  0.76227887    -0.10600
C1172       C  0.42236877  0.95492822  0.75942622    -0.12100
C1173       C  0.31320642  0.86742343  0.78466590    -0.10600
C1174       C  0.30049285  0.84356888  0.79479319    -0.12100
C1175       C  0.40255197  0.71612550  0.96152526    -0.10600
C1176       C  0.42374776  0.72115330  0.97909483    -0.12100
C1177       C  0.35729202  0.62108062  0.92420356    -0.10600
C1178       C  0.35966410  0.59932473  0.94335602    -0.12100
C1179       C  0.32477391  0.72640553  0.87818209    -0.10600
C1180       C  0.31024586  0.74388743  0.86022581    -0.12100
C1181       C  0.13492535  0.70592136  0.64199435    -0.10600
C1182       C  0.15707306  0.70423007  0.65919252    -0.12100
C1183       C  0.13978936  0.70286166  0.49028873    -0.10600
C1184       C  0.16091395  0.70266362  0.47144178    -0.12100
C1185       C  0.92203707  0.70378314  0.48634712    -0.10600
C1186       C  0.90042148  0.70239730  0.46822274    -0.12100
C1187       C  0.23132026  0.83362223  0.74382716    -0.10600
C1188       C  0.24672619  0.81707513  0.76210953    -0.12100
C1189       C  0.15170499  0.84012014  0.66061302    -0.10600
C1190       C  0.13044808  0.83637078  0.64258625    -0.12100
C1191       C  0.19113582  0.95824409  0.67591747    -0.10600
C1192       C  0.19489800  0.93696885  0.69544616    -0.12100
C1193       C  0.23478866  0.83150816  0.38115421    -0.10600
C1194       C  0.24906741  0.81440397  0.36255530    -0.12100
C1195       C  0.13363836  0.83288539  0.48005609    -0.10600
C1196       C  0.15576116  0.83791237  0.46374120    -0.12100
C1197       C  0.19816094  0.93513174  0.42868053    -0.10600
C1198       C  0.19299505  0.95671571  0.44755207    -0.12100
C1199       C  0.92235258  0.61693390  0.84981778    -0.10600
C1200       C  0.89597937  0.62510264  0.85013487    -0.12100
C1201       C  0.81453519  0.60700010  0.91999368    -0.10600
C1202       C  0.81370065  0.59576956  0.94622224    -0.12100
C1203       C  0.80832706  0.37140197  0.83541281    -0.10600
C1204       C  0.79424233  0.34993382  0.82231476    -0.12100
C1205       C  0.91634141  0.46267154  0.85012030    -0.10600
C1206       C  0.89176939  0.44952070  0.85101519    -0.12100
C1207       C  0.82009292  0.43737504  0.96130671    -0.10600
C1208       C  0.82377047  0.42797462  0.93475559    -0.12100
C1209       C  0.82533713  0.91026634  0.66782324    -0.10600
C1210       C  0.82034009  0.93609962  0.65634330    -0.12100
C1211       C  0.91951881  0.82765178  0.63293475    -0.10600
C1212       C  0.89539660  0.82692989  0.64710105    -0.12100
C1213       C  0.79648488  0.79692666  0.37695454    -0.10600
C1214       C  0.81037785  0.80826879  0.39934253    -0.12100
C1215       C  0.81290421  0.91156936  0.49840437    -0.10600
C1216       C  0.81568277  0.88569621  0.48594657    -0.12100
C1217       C  0.92976218  0.82887249  0.47197974    -0.10600
C1218       C  0.90425689  0.82777263  0.46114077    -0.12100
C1219       C  0.30903738  0.94278317  0.45581952    -0.10600
C1220       C  0.31409496  0.93363013  0.42951170    -0.12100
C1221       C  0.39783571  0.93992701  0.36031313    -0.10600
C1222       C  0.42265041  0.95247166  0.36198705    -0.12100
C1223       C  0.31421076  0.86368531  0.33839085    -0.10600
C1224       C  0.30138081  0.83994702  0.32816906    -0.12100
C1225       C  0.92043480  0.35772564  0.48339111    -0.10600
C1226       C  0.89767869  0.35975578  0.46695578    -0.12100
C1227       C  0.89792113  0.44021476  0.39090864    -0.10600
C1228       C  0.92029852  0.45765381  0.38978912    -0.12100
C1229       C  0.81097928  0.32987472  0.35741643    -0.10600
C1230       C  0.82919660  0.34575113  0.37354259    -0.12100
C1231       C  0.40602953  0.34398766  0.95110165    -0.10600
C1232       C  0.42724011  0.33941352  0.96861778    -0.12100
C1233       C  0.34928990  0.45342058  0.94837995    -0.10600
C1234       C  0.34863487  0.43470866  0.92640583    -0.12100
C1235       C  0.32022734  0.33069569  0.87805603    -0.10600
C1236       C  0.30511088  0.31370686  0.86048884    -0.12100
C1237       C  0.79431289  0.79641581  0.74343440    -0.10600
C1238       C  0.80975596  0.80899332  0.72276669    -0.12100
C1239       C  0.78850631  0.70905821  0.82350242    -0.10600
C1240       C  0.80150188  0.68620945  0.83550286    -0.12100
C1241       C  0.72250272  0.80739568  0.83734687    -0.10600
C1242       C  0.70802546  0.82445080  0.85635341    -0.12100
C1243       C  0.69884652  0.89533235  0.65126304    -0.10600
C1244       C  0.69650921  0.91521847  0.63038534    -0.12100
C1245       C  0.65419247  0.93711318  0.74325140    -0.10600
C1246       C  0.63284279  0.95517464  0.74701555    -0.12100
C1247       C  0.72639280  0.84677012  0.75467644    -0.10600
C1248       C  0.73945147  0.82637268  0.77065400    -0.12100
C1249       C  0.89579989  0.62084045  0.72923374    -0.10600
C1250       C  0.91872344  0.60430708  0.72956293    -0.12100
C1251       C  0.92024411  0.70444391  0.63769710    -0.10600
C1252       C  0.89758559  0.70178934  0.65415196    -0.12100
C1253       C  0.81134985  0.73226030  0.76322930    -0.10600
C1254       C  0.82936927  0.71628226  0.74716636    -0.12100
C1255       C  0.64063693  0.70795158  0.95077886    -0.10600
C1256       C  0.62096331  0.71300342  0.97013806    -0.12100
C1257       C  0.69775479  0.59960285  0.94446045    -0.10600
C1258       C  0.69738160  0.61794749  0.92217582    -0.12100
C1259       C  0.73541098  0.73873945  0.85214193    -0.10600
C1260       C  0.72109397  0.72215688  0.87090836    -0.12100
loop_ 
_geom_bond_atom_site_label_1 
_geom_bond_atom_site_label_2 
_geom_bond_distance 
_geom_bond_site_symmetry_2 
_ccdc_geom_bond_type 
C1            N2   1.362       .  A
C1            N6   1.337       .  A
C1         C1255   1.426       .  S
N2            C3   1.367       .  A
C3            N4   1.372       .  A
C3         C1260   1.459       .  S
N4            C5   1.367       .  A
C5            N6   1.341       .  A
C5         C1258   1.431       .  S
C7            N8   1.374       .  A
C7           N12   1.375       .  A
C7         C1254   1.475       .  S
N8            C9   1.369       .  A
C9           N10   1.340       .  A
C9         C1249   1.438       .  S
N10          C11   1.339       .  A
C11          N12   1.370       .  A
C11        C1252   1.442       .  S
C13          N14   1.363       .  A
C13          N18   1.338       .  A
C13        C1245   1.430       .  S
N14          C15   1.368       .  A
C15          N16   1.373       .  A
C15        C1247   1.461       .  S
N16          C17   1.367       .  A
C17          N18   1.342       .  A
C17        C1243   1.434       .  S
C19        C1259   1.470       .  S
C19          C20   1.431       .  A
C19          C24   1.430       .  A
C20        C1241   1.500       .  S
C20          C21   1.438       .  A
C21        C1248   1.470       .  S
C21          C22   1.437       .  A
C22        C1237   1.470       .  S
C22          C23   1.420       .  A
C23        C1253   1.489       .  S
C23          C24   1.421       .  A
C24        C1239   1.460       .  S
C25          N26   1.360       .  A
C25          N30   1.337       .  A
C25        C1231   1.422       .  S
N26          C27   1.365       .  A
C27          N28   1.370       .  A
C27        C1235   1.452       .  S
N28          C29   1.365       .  A
C29          N30   1.341       .  A
C29        C1234   1.428       .  S
C31          N32   1.377       .  A
C31          N36   1.377       .  A
C31        C1230   1.486       .  S
N32          C33   1.372       .  A
C33          N34   1.339       .  A
C33        C1226   1.444       .  S
N34          C35   1.339       .  A
C35          N36   1.372       .  A
C35        C1227   1.446       .  S
C37          N38   1.342       .  A
C37          N42   1.367       .  A
C37        C1221   1.429       .  S
N38          C39   1.341       .  A
C39          N40   1.352       .  A
C39        C1220   1.409       .  S
N40          C41   1.356       .  A
C41          N42   1.369       .  A
C41        C1223   1.441       .  S
C43          N44   1.340       .  A
C43          N48   1.367       .  A
C43        C1218   1.430       .  S
N44          C45   1.340       .  A
C45          N46   1.359       .  A
C45        C1216   1.417       .  S
N46          C47   1.362       .  A
C47          N48   1.370       .  A
C47        C1214   1.452       .  S
C49          N50   1.372       .  A
C49          N54   1.341       .  A
C49        C1212   1.439       .  S
N50          C51   1.375       .  A
C51          N52   1.359       .  A
C51        C1238   1.456       .  S
N52          C53   1.354       .  A
C53          N54   1.340       .  A
C53        C1209   1.412       .  S
C55          N56   1.342       .  A
C55          N60   1.366       .  A
C55        C1206   1.430       .  S
N56          C57   1.342       .  A
C57          N58   1.356       .  A
C57        C1208   1.415       .  S
N58          C59   1.359       .  A
C59          N60   1.369       .  A
C59        C1203   1.447       .  S
C61          N62   1.361       .  A
C61          N66   1.341       .  A
C61        C1200   1.424       .  S
N62          C63   1.365       .  A
C63          N64   1.364       .  A
C63        C1240   1.447       .  S
N64          C65   1.361       .  A
C65          N66   1.342       .  A
C65        C1201   1.422       .  S
C67          N68   1.362       .  A
C67          N72   1.338       .  A
C67        C1196   1.429       .  S
N68          C69   1.368       .  A
C69          N70   1.377       .  A
C69        C1193   1.467       .  S
N70          C71   1.372       .  A
C71          N72   1.341       .  A
C71        C1197   1.443       .  S
C73          N74   1.367       .  A
C73          N78   1.338       .  A
C73        C1189   1.438       .  S
N74          C75   1.373       .  A
C75          N76   1.379       .  A
C75        C1187   1.478       .  S
N76          C77   1.373       .  A
C77          N78   1.341       .  A
C77        C1192   1.445       .  S
C79          N97   1.362       .  A
C79        C1251   1.448       .  S
C79         C116   1.432       .  S
N80          N97   1.336       .  A
N80         N102   1.319       .  A
N80        Co117   2.143   1_655  S
C81         N106   1.356       .  A
C81         C119   1.477       .  S
C81         H126   1.081       .  S
H82         C123   1.081       .  S
C83         N107   1.328       .  A
C83          C87   1.429       .  S
C83         H112   1.082       .  S
Co84        N102   2.047   1_455  S
Co84         N92   2.042   1_455  S
Co84        N124   2.048       .  S
Co84        N100   2.037       .  S
Co84       Cl128   2.459       .  S
N85         C123   1.357       .  A
N85          N92   1.321       .  A
N85         Co86   2.139   1_655  S
Co86         N89   2.136   1_455  S
Co86        N106   2.137       .  S
Co86         N93   2.132       .  S
Co86       Cl128   2.446       .  S
C87         N125   1.363       .  A
C87        C1217   1.433       .  S
N88          N95   1.320       .  A
N88         N118   1.320       .  A
N88        Co121   2.051   1_655  S
N89         N107   1.318       .  A
N89         N125   1.333       .  A
N90         C119   1.330       .  A
N90         N100   1.316       .  A
H91         C116   1.080       .  S
N92         N113   1.315       .  A
N93         N111   1.321       .  A
N93          N98   1.333       .  A
C94          N98   1.360       .  A
C94        C1195   1.431       .  S
C94         C122   1.427       .  S
N95         C110   1.358       .  A
N95        Co117   2.141   1_655  S
C96         N124   1.333       .  A
C96          C99   1.433       .  S
C96         H130   1.080       .  S
C99         N120   1.360       .  A
C99        C1181   1.444       .  S
N100        N106   1.320       .  A
N101        C127   1.361       .  A
N101        N103   1.318       .  A
N101       Co117   2.142       .  S
N102        C116   1.333       .  A
N103        N131   1.318       .  A
N103       Co121   2.042       .  S
H104        C127   1.080       .  S
H105        C122   1.081       .  S
N107       Co121   2.027   1_655  S
N108        N120   1.335       .  A
N108        N124   1.319       .  A
N108       Co117   2.137       .  S
C109        N113   1.329       .  A
C109       C1211   1.442       .  S
C109        C123   1.479       .  S
C110        C129   1.476       .  S
C110        H114   1.080       .  S
N111        C122   1.328       .  A
N111       Co121   2.037       .  S
C115        N131   1.332       .  A
C115       C1183   1.453       .  S
C115        C127   1.480       .  S
Co117      Cl128   2.444       .  S
N118        C129   1.335       .  A
C119       C1190   1.441       .  S
Co121      Cl128   2.454       .  S
C129       C1185   1.453       .  S
C132        N133   1.362       .  A
C132        N137   1.339       .  A
C132       C1175   1.430       .  S
N133        C134   1.368       .  A
C134        N135   1.376       .  A
C134       C1179   1.467       .  S
N135        C136   1.371       .  A
C136        N137   1.342       .  A
C136       C1177   1.442       .  S
C138        N139   1.341       .  A
C138        N143   1.367       .  A
C138       C1171   1.429       .  S
N139        C140   1.340       .  A
C140        N141   1.352       .  A
C140       C1169   1.407       .  S
N141        C142   1.356       .  A
C142        N143   1.369       .  A
C142       C1173   1.442       .  S
C144       C1174   1.455       .  S
C144        C145   1.441       .  A
C144        C149   1.431       .  A
C145       C1188   1.488       .  S
C145        C146   1.432       .  A
C146       C1165   1.497       .  S
C146        C147   1.427       .  A
C147       C1163   1.456       .  S
C147        C148   1.433       .  A
C148       C1180   1.478       .  S
C148        C149   1.428       .  A
C149       C1167   1.502       .  S
C150        N151   1.380       .  A
C150        N155   1.373       .  A
C150       C1166   1.485       .  S
N151        C152   1.375       .  A
C152        N153   1.340       .  A
C152       C1161   1.449       .  S
N153        C154   1.339       .  A
C154        N155   1.368       .  A
C154       C1182   1.439       .  S
C156        N174   1.357       .  A
C156       C1199   1.426       .  S
C156        C193   1.433       .  S
N157        N174   1.329       .  A
N157        N179   1.318       .  A
N157       Co194   2.120   1_655  S
C158        N183   1.360       .  A
C158        C196   1.480       .  S
C158        H203   1.081       .  S
H159        C200   1.079       .  S
C160        N184   1.333       .  A
C160        C164   1.432       .  S
C160        H189   1.080       .  S
Co161       N179   2.036   1_455  S
Co161       N169   2.046   1_455  S
Co161       N201   2.033       .  S
Co161       N177   2.046       .  S
Co161      Cl205   2.460       .  S
N162        C200   1.357       .  A
N162        N169   1.319       .  A
N162       Co163   2.134   1_655  S
Co163       N166   2.146   1_455  S
Co163       N183   2.149       .  S
Co163       N170   2.139       .  S
Co163      Cl205   2.441       .  S
C164        N202   1.361       .  A
C164       C1154   1.447       .  S
N165        N172   1.320       .  A
N165        N195   1.316       .  A
N165       Co198   2.042   1_655  S
N166        N184   1.319       .  A
N166        N202   1.336       .  A
N167        C196   1.333       .  A
N167        N177   1.319       .  A
H168        C193   1.081       .  S
N169        N190   1.319       .  A
N170        N188   1.319       .  A
N170        N175   1.336       .  A
C171        N175   1.362       .  A
C171       C1156   1.448       .  S
C171        C199   1.433       .  S
N172        C187   1.351       .  A
N172       Co194   2.119   1_655  S
C173        N201   1.327       .  A
C173        C176   1.430       .  S
C173        H207   1.082       .  S
C176        N197   1.359       .  A
C176       C1158   1.426       .  S
N177        N183   1.320       .  A
N178        C204   1.352       .  A
N178        N180   1.320       .  A
N178       Co194   2.125       .  S
N179        C193   1.330       .  A
N180        N208   1.315       .  A
N180       Co198   2.038       .  S
H181        C204   1.081       .  S
H182        C199   1.080       .  S
N184       Co198   2.045   1_655  S
N185        N197   1.330       .  A
N185        N201   1.318       .  A
N185       Co194   2.121       .  S
C186        N190   1.334       .  A
C186       C1250   1.447       .  S
C186        C200   1.470       .  S
C187        C206   1.469       .  S
C187        H191   1.081       .  S
N188        C199   1.333       .  A
N188       Co198   2.051       .  S
C192        N208   1.330       .  A
C192       C1159   1.435       .  S
C192        C204   1.473       .  S
Co194      Cl205   2.439       .  S
N195        C206   1.332       .  A
C196       C1162   1.455       .  S
Co198      Cl205   2.461       .  S
C206       C1205   1.432       .  S
C209        N210   1.340       .  A
C209        N214   1.361       .  A
C209       C1151   1.423       .  S
N210        C211   1.340       .  A
C211        N212   1.367       .  A
C211       C1160   1.431       .  S
N212        C213   1.370       .  A
C213        N214   1.366       .  A
C213       C1149   1.458       .  S
C215        N216   1.364       .  A
C215        N220   1.341       .  A
C215       C1157   1.425       .  S
N216        C217   1.366       .  A
C217        N218   1.359       .  A
C217       C1164   1.442       .  S
N218        C219   1.356       .  A
C219        N220   1.341       .  A
C219       C1147   1.410       .  S
C221        N222   1.379       .  A
C221        N226   1.376       .  A
C221       C1168   1.490       .  S
N222        C223   1.375       .  A
C223        N224   1.341       .  A
C223       C1144   1.451       .  S
N224        C225   1.341       .  A
C225        N226   1.372       .  A
C225       C1145   1.444       .  S
C227        N228   1.381       .  A
C227        N232   1.374       .  A
C227       C1242   1.492       .  S
N228        C229   1.377       .  A
C229        N230   1.342       .  A
C229       C1139   1.454       .  S
N230        C231   1.341       .  A
C231        N232   1.370       .  A
C231       C1141   1.443       .  S
C233        N234   1.378       .  A
C233        N238   1.373       .  A
C233       C1136   1.483       .  S
N234        C235   1.374       .  A
C235        N236   1.342       .  A
C235       C1184   1.449       .  S
N236        C237   1.341       .  A
C237        N238   1.368       .  A
C237       C1138   1.440       .  S
C239       C1224   1.455       .  S
C239        C240   1.434       .  A
C239        C244   1.424       .  A
C240       C1194   1.478       .  S
C240        C241   1.429       .  A
C241       C1135   1.495       .  S
C241        C242   1.430       .  A
C242       C1129   1.465       .  S
C242        C243   1.438       .  A
C243       C1131   1.473       .  S
C243        C244   1.428       .  A
C244       C1133   1.499       .  S
C245        N246   1.338       .  A
C245        N250   1.364       .  A
C245       C1126   1.433       .  S
N246        C247   1.342       .  A
C247        N248   1.366       .  A
C247       C1127   1.433       .  S
N248        C249   1.372       .  A
C249        N250   1.370       .  A
C249       C1132   1.462       .  S
C251        N269   1.354       .  A
C251       C1233   1.437       .  S
C251        C288   1.435   1_556  S
N252        N269   1.332   1_554  A
N252        N274   1.321       .  A
N252       Co289   2.119       .  S
C253        N278   1.350       .  A
C253        C291   1.466       .  S
C253        H298   1.081       .  S
H254        C295   1.081   1_556  S
C255        N279   1.329   1_556  A
C255        C259   1.432       .  S
C255        H284   1.081       .  S
Co256       N274   2.057       .  S
Co256       N264   2.035       .  S
Co256       N296   2.038       .  S
Co256       N272   2.049       .  S
Co256      Cl300   2.455       .  S
N257        C295   1.348       .  A
N257        N264   1.317       .  A
N257       Co258   2.106       .  S
Co258       N261   2.096       .  S
Co258       N278   2.108       .  S
Co258       N265   2.100       .  S
Co258      Cl300   2.441       .  S
C259        N297   1.351       .  A
C259       C1148   1.414       .  S
N260        N267   1.317       .  A
N260        N290   1.316   1_554  A
N260       Co293   2.040       .  S
N261        N279   1.320       .  A
N261        N297   1.325   1_554  A
N262        C291   1.331       .  A
N262        N272   1.314       .  A
H263        C288   1.079   1_556  S
N264        N285   1.315       .  A
N265        N283   1.317       .  A
N265        N270   1.326       .  A
C266        N270   1.353       .  A
C266       C1119   1.416       .  S
C266        C294   1.434       .  S
N267        C282   1.360   1_554  A
N267       Co289   2.132       .  S
C268        N296   1.330       .  A
C268        C271   1.430       .  S
C268        H302   1.080       .  S
C271        N292   1.359       .  A
C271       C1123   1.442       .  S
N272        N278   1.321       .  A
N273        C299   1.353       .  A
N273        N275   1.320       .  A
N273       Co289   2.120       .  S
N274        C288   1.333       .  A
N275        N303   1.317       .  A
N275       Co293   2.050       .  S
H276        C299   1.080       .  S
H277        C294   1.081       .  S
N279       Co293   2.046       .  S
N280        N292   1.336       .  A
N280        N296   1.317       .  A
N280       Co289   2.134       .  S
C281        N285   1.331   1_556  A
C281       C1152   1.426       .  S
C281        C295   1.466   1_556  S
C282        C301   1.474       .  S
C282        H286   1.080       .  S
N283        C294   1.330       .  A
N283       Co293   2.029       .  S
C287        N303   1.336       .  A
C287       C1128   1.440       .  S
C287        C299   1.465       .  S
Co289      Cl300   2.444       .  S
N290        C301   1.332       .  A
C291       C1121   1.426       .  S
Co293      Cl300   2.449       .  S
C301       C1178   1.446       .  S
C304        N322   1.359       .  A
C304       C1109   1.427       .  S
C304        C341   1.430       .  S
N305        N322   1.330       .  A
N305        N327   1.320       .  A
N305       Co342   2.125   1_655  S
C306        N331   1.357       .  A
C306        C344   1.474       .  S
C306        H351   1.080       .  S
H307        C348   1.081       .  S
C308        N332   1.334       .  A
C308        C312   1.435       .  S
C308        H337   1.079       .  S
Co309       N327   2.038   1_455  S
Co309       N317   2.044   1_455  S
Co309       N349   2.029       .  S
Co309       N325   2.047       .  S
Co309      Cl353   2.455       .  S
N310        C348   1.359       .  A
N310        N317   1.318       .  A
N310       Co311   2.139   1_655  S
Co311       N314   2.130   1_455  S
Co311       N331   2.136       .  S
Co311       N318   2.137       .  S
Co311      Cl353   2.444       .  S
C312        N350   1.358       .  A
C312       C1118   1.442       .  S
N313        N320   1.318       .  A
N313        N343   1.314       .  A
N313       Co346   2.027   1_655  S
N314        N332   1.320       .  A
N314        N350   1.333       .  A
N315        C344   1.334       .  A
N315        N325   1.319       .  A
H316        C341   1.081       .  S
N317        N338   1.319       .  A
N318        N336   1.318       .  A
N318        N323   1.335       .  A
C319        N323   1.361       .  A
C319       C1137   1.444       .  S
C319        C347   1.433       .  S
N320        C335   1.352       .  A
N320       Co342   2.124   1_655  S
C321        N349   1.328       .  A
C321        C324   1.432       .  S
C321        H355   1.082       .  S
C324        N345   1.359       .  A
C324       C1114   1.425       .  S
N325        N331   1.320       .  A
N326        C352   1.355       .  A
N326        N328   1.321       .  A
N326       Co342   2.136       .  S
N327        C341   1.329       .  A
N328        N356   1.313       .  A
N328       Co346   2.033       .  S
H329        C352   1.081       .  S
H330        C347   1.080       .  S
N332       Co346   2.055   1_655  S
N333        N345   1.330       .  A
N333        N349   1.318       .  A
N333       Co342   2.119       .  S
C334        N338   1.333       .  A
C334       C1228   1.452       .  S
C334        C348   1.476       .  S
C335        C354   1.473       .  S
C335        H339   1.081       .  S
N336        C347   1.334       .  A
N336       Co346   2.046       .  S
C340        N356   1.328       .  A
C340       C1115   1.436       .  S
C340        C352   1.476       .  S
Co342      Cl353   2.440       .  S
N343        C354   1.328       .  A
C344       C1111   1.447       .  S
Co346      Cl353   2.459       .  S
C354       C1108   1.431       .  S
C357        N358   1.361       .  A
C357        N362   1.340       .  A
C357       C1113   1.423       .  S
N358        C359   1.365       .  A
C359        N360   1.367       .  A
C359       C1105   1.452       .  S
N360        C361   1.364       .  A
C361        N362   1.341       .  A
C361       C1122   1.424       .  S
C363        N364   1.363       .  A
C363        N368   1.340       .  A
C363       C1110   1.424       .  S
N364        C365   1.366       .  A
C365        N366   1.358       .  A
C365       C1102   1.438       .  S
N366        C367   1.355       .  A
C367        N368   1.340       .  A
C367       C1103   1.409       .  S
C369        N370   1.338       .  A
C369        N374   1.357       .  A
C369       C1099   1.414       .  S
N370        C371   1.339       .  A
C371        N372   1.367       .  A
C371       C1107   1.427       .  S
N372        C373   1.370       .  A
C373        N374   1.362       .  A
C373       C1098   1.449       .  S
C375        N393   1.355       .  A
C375       C1257   1.439       .  S
C375        C412   1.432       .  S
N376        N393   1.333   1_554  A
N376        N398   1.317       .  A
N376       Co413   2.124       .  S
C377        N402   1.345       .  A
C377        C415   1.463       .  S
C377        H422   1.081       .  S
H378        C419   1.081       .  S
C379        N403   1.330       .  A
C379        C383   1.435   1_554  S
C379        H408   1.081       .  S
Co380       N398   2.043       .  S
Co380       N388   2.052       .  S
Co380       N420   2.057       .  S
Co380       N396   2.033       .  S
Co380      Cl424   2.454       .  S
N381        C419   1.347   1_554  A
N381        N388   1.321       .  A
N381       Co382   2.103       .  S
Co382       N385   2.098       .  S
Co382       N402   2.099       .  S
Co382       N389   2.096       .  S
Co382      Cl424   2.441       .  S
C383        N421   1.352   1_556  A
C383       C1207   1.416       .  S
N384        N391   1.320       .  A
N384        N414   1.318       .  A
N384       Co417   2.051       .  S
N385        N403   1.317       .  A
N385        N421   1.325       .  A
N386        C415   1.331       .  A
N386        N396   1.314       .  A
H387        C412   1.080       .  S
N388        N409   1.315   1_554  A
N389        N407   1.319       .  A
N389        N394   1.325       .  A
C390        N394   1.351       .  A
C390       C1104   1.412       .  S
C390        C418   1.433       .  S
N391        C406   1.353   1_554  A
N391       Co413   2.116       .  S
C392        N420   1.333       .  A
C392        C395   1.436       .  S
C392        H426   1.079       .  S
C395        N416   1.354       .  A
C395       C1091   1.439       .  S
N396        N402   1.318       .  A
N397        C423   1.356       .  A
N397        N399   1.317       .  A
N397       Co413   2.119       .  S
N398        C412   1.332   1_554  A
N399        N427   1.317       .  A
N399       Co417   2.051       .  S
H400        C423   1.080       .  S
H401        C418   1.081       .  S
N403       Co417   2.034       .  S
N404        N416   1.333       .  A
N404        N420   1.321       .  A
N404       Co413   2.119       .  S
C405        N409   1.332       .  A
C405       C1202   1.424       .  S
C405        C419   1.464       .  S
C406        C425   1.463       .  S
C406        H410   1.079       .  S
N407        C418   1.328       .  A
N407       Co417   2.039       .  S
C411        N427   1.335       .  A
C411       C1093   1.442       .  S
C411        C423   1.468       .  S
Co413      Cl424   2.446       .  S
N414        C425   1.335   1_554  A
C415       C1100   1.417       .  S
Co417      Cl424   2.447       .  S
C425       C1095   1.439       .  S
C428        N429   1.338       .  A
C428        N433   1.361       .  A
C428       C1087   1.426       .  S
N429        C430   1.341       .  A
C430        N431   1.367       .  A
C430       C1085   1.435       .  S
N431        C432   1.373       .  A
C432        N433   1.367       .  A
C432       C1090   1.457       .  S
C434        N435   1.377       .  A
C434        N439   1.372       .  A
C434       C1084   1.477       .  S
N435        C436   1.373       .  A
C436        N437   1.341       .  A
C436       C1186   1.447       .  S
N437        C438   1.341       .  A
C438        N439   1.367       .  A
C438       C1117   1.436       .  S
C440       C1213   1.465       .  S
C440        C441   1.420       .  A
C440        C445   1.433       .  A
C441       C1083   1.492       .  S
C441        C442   1.424       .  A
C442       C1097   1.461       .  S
C442        C443   1.436       .  A
C443       C1082   1.474       .  S
C443        C444   1.431       .  A
C444       C1079   1.497       .  S
C444        C445   1.433       .  A
C445       C1089   1.467       .  S
C446        N447   1.340       .  A
C446        N451   1.365       .  A
C446       C1092   1.431       .  S
N447        C448   1.337       .  A
C448        N449   1.367       .  A
C448       C1077   1.434       .  S
N449        C450   1.373       .  A
C450        N451   1.372       .  A
C450       C1081   1.463       .  S
C452        N470   1.360   1_556  A
C452       C1256   1.426       .  S
C452        C489   1.423       .  S
N453        N470   1.333       .  A
N453        N475   1.319       .  A
N453       Co490   2.125       .  S
C454        N479   1.361       .  A
C454        C492   1.483   1_554  S
C454        H499   1.081       .  S
H455        C496   1.081       .  S
C456        N480   1.332       .  A
C456        C460   1.429       .  S
C456        H485   1.080       .  S
Co457       N475   2.026       .  S
Co457       N465   2.041       .  S
Co457       N497   2.038       .  S
Co457       N473   2.035       .  S
Co457      Cl501   2.442       .  S
N458        C496   1.363       .  A
N458        N465   1.319       .  A
N458       Co459   2.157       .  S
Co459       N462   2.157       .  S
Co459       N479   2.150       .  S
Co459       N466   2.152       .  S
Co459      Cl501   2.449       .  S
C460        N498   1.367       .  A
C460       C1074   1.453       .  S
N461        N468   1.321       .  A
N461        N491   1.315       .  A
N461       Co494   2.040       .  S
N462        N480   1.319       .  A
N462        N498   1.339       .  A
N463        C492   1.331       .  A
N463        N473   1.317   1_556  A
H464        C489   1.081       .  S
N465        N486   1.318   1_554  A
N466        N484   1.320       .  A
N466        N471   1.337       .  A
C467        N471   1.364       .  A
C467       C1075   1.449       .  S
C467        C495   1.431       .  S
N468        C483   1.356       .  A
N468       Co490   2.133       .  S
C469        N497   1.329   1_556  A
C469        C472   1.428       .  S
C469        H503   1.081       .  S
C472        N493   1.359   1_556  A
C472       C1176   1.430       .  S
N473        N479   1.318       .  A
N474        C500   1.354       .  A
N474        N476   1.319       .  A
N474       Co490   2.126       .  S
N475        C489   1.326   1_554  A
N476        N504   1.316       .  A
N476       Co494   2.041       .  S
H477        C500   1.081       .  S
H478        C495   1.080       .  S
N480       Co494   2.042       .  S
N481        N493   1.333       .  A
N481        N497   1.320       .  A
N481       Co490   2.126       .  S
C482        N486   1.331       .  A
C482       C1140   1.457       .  S
C482        C496   1.487   1_556  S
C483        C502   1.477       .  S
C483        H487   1.081       .  S
N484        C495   1.332       .  A
N484       Co494   2.042       .  S
C488        N504   1.330       .  A
C488       C1125   1.436       .  S
C488        C500   1.473       .  S
Co490      Cl501   2.457       .  S
N491        C502   1.328       .  A
C492       C1143   1.454       .  S
Co494      Cl501   2.453       .  S
C502       C1078   1.437       .  S
C505        N506   1.377       .  A
C505        N510   1.378       .  A
C505       C1134   1.487       .  S
N506        C507   1.372       .  A
C507        N508   1.340       .  A
C507       C1076   1.444       .  S
N508        C509   1.339       .  A
C509        N510   1.373       .  A
C509       C1071   1.446       .  S
C511        N512   1.375       .  A
C511        N516   1.378       .  A
C511       C1080   1.488       .  S
N512        C513   1.371       .  A
C513        N514   1.340       .  A
C513       C1070   1.443       .  S
N514        C515   1.341       .  A
C515        N516   1.374       .  A
C515       C1073   1.448       .  S
C517        N518   1.367       .  A
C517        N522   1.338       .  A
C517       C1067   1.436       .  S
N518        C519   1.373       .  A
C519        N520   1.373       .  A
C519       C1065   1.468       .  S
N520        C521   1.367       .  A
C521        N522   1.341       .  A
C521       C1094   1.436       .  S
C523       C1066   1.478       .  S
C523        C524   1.440       .  A
C523        C528   1.433       .  A
C524       C1101   1.451       .  S
C524        C525   1.424       .  A
C525       C1229   1.501       .  S
C525        C526   1.416       .  A
C526       C1064   1.468       .  S
C526        C527   1.434       .  A
C527       C1062   1.456       .  S
C527        C528   1.435       .  A
C528       C1060   1.509       .  S
C529        N530   1.336       .  A
C529        N534   1.356       .  A
C529       C1057   1.416       .  S
N530        C531   1.341       .  A
C531        N532   1.365       .  A
C531       C1055   1.427       .  S
N532        C533   1.371       .  A
C533        N534   1.362       .  A
C533       C1061   1.446       .  S
C535        N553   1.365       .  A
C535       C1072   1.452       .  S
C535        C572   1.431       .  S
N536        N553   1.338       .  A
N536        N558   1.320       .  A
N536       Co573   2.156   1_565  S
C537        N562   1.352       .  A
C537        C575   1.468       .  S
C537        H582   1.081   1_565  S
H538        C579   1.082   1_545  S
C539        N563   1.326       .  A
C539        C543   1.429       .  S
C539        H568   1.082       .  S
Co540       N558   2.044       .  S
Co540       N548   2.041       .  S
Co540       N580   2.045       .  S
Co540       N556   2.034       .  S
Co540      Cl584   2.454   1_565  S
N541        C579   1.351       .  A
N541        N548   1.320       .  A
N541       Co542   2.119   1_565  S
Co542       N545   2.118       .  S
Co542       N562   2.116   1_545  S
Co542       N549   2.107       .  S
Co542      Cl584   2.449       .  S
C543        N581   1.359       .  A
C543       C1053   1.423       .  S
N544        N551   1.320       .  A
N544        N574   1.318       .  A
N544       Co577   2.039       .  S
N545        N563   1.318       .  A
N545        N581   1.330       .  A
N546        C575   1.329       .  A
N546        N556   1.314       .  A
H547        C572   1.080       .  S
N548        N569   1.315       .  A
N549        N567   1.319       .  A
N549        N554   1.329       .  A
C550        N554   1.354       .  A
C550       C1058   1.416       .  S
C550        C578   1.426       .  S
N551        C566   1.359       .  A
N551       Co573   2.147       .  S
C552        N580   1.332       .  A
C552        C555   1.431       .  S
C552        H586   1.080       .  S
C555        N576   1.363       .  A
C555       C1069   1.447       .  S
N556        N562   1.319       .  A
N557        C583   1.363       .  A
N557        N559   1.318       .  A
N557       Co573   2.157       .  S
N558        C572   1.333       .  A
N559        N587   1.317       .  A
N559       Co577   2.034       .  S
H560        C583   1.081       .  S
H561        C578   1.081       .  S
N563       Co577   2.027       .  S
N564        N576   1.337       .  A
N564        N580   1.319       .  A
N564       Co573   2.144   1_565  S
C565        N569   1.330       .  A
C565       C1222   1.431       .  S
C565        C579   1.472       .  S
C566        C585   1.480       .  S
C566        H570   1.082       .  S
N567        C578   1.326       .  A
N567       Co577   2.031       .  S
C571        N587   1.330       .  A
C571       C1049   1.457       .  S
C571        C583   1.487       .  S
Co573      Cl584   2.445       .  S
N574        C585   1.333       .  A
C575       C1088   1.428       .  S
Co577      Cl584   2.446       .  S
C585       C1051   1.452       .  S
C588        N606   1.358   1_556  A
C588       C1232   1.423       .  S
C588        C625   1.425       .  S
N589        N606   1.331       .  A
N589        N611   1.319   1_554  A
N589       Co626   2.121       .  S
C590        N615   1.366       .  A
C590        C628   1.492   1_554  S
C590        H635   1.081       .  S
H591        C632   1.081       .  S
C592        N616   1.332       .  A
C592        C596   1.430       .  S
C592        H621   1.080       .  S
Co593       N611   2.027       .  S
Co593       N601   2.039   1_556  S
Co593       N633   2.036       .  S
Co593       N609   2.030   1_556  S
Co593      Cl637   2.442   1_556  S
N594        C632   1.362       .  A
N594        N601   1.319       .  A
N594       Co595   2.157       .  S
Co595       N598   2.155       .  S
Co595       N615   2.168       .  S
Co595       N602   2.162       .  S
Co595      Cl637   2.452       .  S
C596        N634   1.365       .  A
C596       C1044   1.449       .  S
N597        N604   1.319       .  A
N597        N627   1.315       .  A
N597       Co630   2.036       .  S
N598        N616   1.319       .  A
N598        N634   1.338       .  A
N599        C628   1.328       .  A
N599        N609   1.317   1_556  A
H600        C625   1.081       .  S
N601        N622   1.318   1_554  A
N602        N620   1.319       .  A
N602        N607   1.340       .  A
C603        N607   1.369       .  A
C603       C1045   1.454       .  S
C603        C631   1.427       .  S
N604        C619   1.354       .  A
N604       Co626   2.123       .  S
C605        N633   1.328       .  A
C605        C608   1.427       .  S
C605        H639   1.081       .  S
C608        N629   1.359   1_556  A
C608       C1048   1.427       .  S
N609        N615   1.319       .  A
N610        C636   1.356       .  A
N610        N612   1.320       .  A
N610       Co626   2.133       .  S
N611        C625   1.326       .  A
N612        N640   1.314       .  A
N612       Co630   2.035       .  S
H613        C636   1.081       .  S
H614        C631   1.080       .  S
N616       Co630   2.040       .  S
N617        N629   1.332       .  A
N617        N633   1.320   1_554  A
N617       Co626   2.121       .  S
C618        N622   1.332       .  A
C618       C1039   1.456       .  S
C618        C632   1.484   1_556  S
C619        C638   1.472       .  S
C619        H623   1.081       .  S
N620        C631   1.330       .  A
N620       Co630   2.039       .  S
C624        N640   1.328       .  A
C624       C1068   1.438       .  S
C624        C636   1.477       .  S
Co626      Cl637   2.458       .  S
N627        C638   1.329       .  A
C628       C1038   1.462       .  S
Co630      Cl637   2.446       .  S
C638       C1041   1.433       .  S
C641        N642   1.375       .  A
C641        N646   1.378       .  A
C641       C1035   1.486       .  S
N642        C643   1.371       .  A
C643        N644   1.341       .  A
C643       C1043   1.446       .  S
N644        C645   1.342       .  A
C645        N646   1.373       .  A
C645       C1052   1.447       .  S
C647        N648   1.380       .  A
C647        N652   1.380       .  A
C647       C1032   1.496       .  S
N648        C649   1.375       .  A
C649        N650   1.341       .  A
C649       C1034   1.451       .  S
N650        C651   1.341       .  A
C651        N652   1.375       .  A
C651       C1040   1.452       .  S
C653        N654   1.340       .  A
C653        N658   1.380       .  A
C653       C1037   1.459       .  S
N654        C655   1.340       .  A
C655        N656   1.374       .  A
C655       C1030   1.449       .  S
N656        C657   1.379       .  A
C657        N658   1.384       .  A
C657       C1027   1.503       .  S
C659        N677   1.364       .  A
C659       C1142   1.445       .  S
C659        C696   1.429       .  S
N660        N677   1.337       .  A
N660        N682   1.319       .  A
N660       Co697   2.146   1_565  S
C661        N686   1.351       .  A
C661        C699   1.472       .  S
C661        H706   1.082   1_565  S
H662        C703   1.081   1_545  S
C663        N687   1.328       .  A
C663        C667   1.428       .  S
C663        H692   1.081       .  S
Co664       N682   2.040       .  S
Co664       N672   2.037       .  S
Co664       N704   2.048       .  S
Co664       N680   2.038       .  S
Co664      Cl708   2.450   1_565  S
N665        C703   1.353   1_545  A
N665        N672   1.320   1_545  A
N665       Co666   2.122       .  S
Co666       N669   2.111       .  S
Co666       N686   2.118   1_545  S
Co666       N673   2.120       .  S
Co666      Cl708   2.451       .  S
C667        N705   1.355       .  A
C667       C1023   1.420       .  S
N668        N675   1.319       .  A
N668        N698   1.317       .  A
N668       Co701   2.037       .  S
N669        N687   1.319       .  A
N669        N705   1.329       .  A
N670        C699   1.330       .  A
N670        N680   1.315       .  A
H671        C696   1.081       .  S
N672        N693   1.315       .  A
N673        N691   1.318       .  A
N673        N678   1.330       .  A
C674        N678   1.359       .  A
C674       C1026   1.427       .  S
C674        C702   1.430       .  S
N675        C690   1.362       .  A
N675       Co697   2.149       .  S
C676        N704   1.332       .  A
C676        C679   1.431       .  S
C676        H710   1.080       .  S
C679        N700   1.364       .  A
C679       C1146   1.448       .  S
N680        N686   1.319       .  A
N681        C707   1.361       .  A
N681        N683   1.319       .  A
N681       Co697   2.151       .  S
N682        C696   1.330       .  A
N683        N711   1.318       .  A
N683       Co701   2.041       .  S
H684        C707   1.081       .  S
H685        C702   1.082       .  S
N687       Co701   2.032       .  S
N688        N700   1.337       .  A
N688        N704   1.320       .  A
N688       Co697   2.147   1_565  S
C689        N693   1.330       .  A
C689       C1246   1.431       .  S
C689        C703   1.471       .  S
C690        C709   1.483       .  S
C690        H694   1.080       .  S
N691        C702   1.327       .  A
N691       Co701   2.034       .  S
C695        N711   1.332       .  A
C695       C1033   1.455       .  S
C695        C707   1.483       .  S
Co697      Cl708   2.450       .  S
N698        C709   1.331       .  A
C699       C1172   1.432       .  S
Co701      Cl708   2.445       .  S
C709       C1029   1.452       .  S
C712        N713   1.337       .  A
C712        N717   1.361       .  A
C712       C1047   1.426       .  S
N713        C714   1.341       .  A
C714        N715   1.366       .  A
C714       C1096   1.430       .  S
N715        C716   1.372       .  A
C716        N717   1.367       .  A
C716       C1021   1.456       .  S
C718        N719   1.374       .  A
C718        N723   1.377       .  A
C718       C1019   1.482       .  S
N719        C720   1.370       .  A
C720        N721   1.340       .  A
C720       C1153   1.441       .  S
N721        C722   1.340       .  A
C722        N723   1.372       .  A
C722       C1017   1.445       .  S
C724       C1022   1.467       .  S
C724        C725   1.436       .  A
C724        C729   1.435       .  A
C725       C1204   1.460       .  S
C725        C726   1.418       .  A
C726       C1020   1.496       .  S
C726        C727   1.416       .  A
C727       C1013   1.459       .  S
C727        C728   1.435       .  A
C728       C1015   1.471       .  S
C728        C729   1.440       .  A
C729       C1028   1.511       .  S
C730        N731   1.373       .  A
C730        N735   1.342       .  A
C730       C1011   1.441       .  S
N731        C732   1.378       .  A
C732        N733   1.362       .  A
C732       C1016   1.462       .  S
N733        C734   1.357       .  A
C734        N735   1.338       .  A
C734       C1024   1.420       .  S
C736        N754   1.353       .  A
C736       C1210   1.413       .  S
C736        C773   1.433       .  S
N737        N754   1.326       .  A
N737        N759   1.317   1_565  A
N737       Co774   2.096   1_565  S
C738        N763   1.360       .  A
C738        C776   1.474       .  S
C738        H783   1.080       .  S
H739        C780   1.078       .  S
C740        N764   1.331       .  A
C740        C744   1.432       .  S
C740        H769   1.080       .  S
Co741       N759   2.027       .  S
Co741       N749   2.054   1_545  S
Co741       N781   2.050       .  S
Co741       N757   2.040       .  S
Co741      Cl785   2.444       .  S
N742        C780   1.355       .  A
N742        N749   1.320       .  A
N742       Co743   2.120   1_565  S
Co743       N746   2.129   1_545  S
Co743       N763   2.131       .  S
Co743       N750   2.113       .  S
Co743      Cl785   2.446       .  S
C744        N782   1.357       .  A
C744       C1086   1.440       .  S
N745        N752   1.321       .  A
N745        N775   1.314       .  A
N745       Co778   2.049   1_565  S
N746        N764   1.318       .  A
N746        N782   1.335       .  A
N747        C776   1.332       .  A
N747        N757   1.316       .  A
H748        C773   1.082       .  S
N749        N770   1.318       .  A
N750        N768   1.320       .  A
N750        N755   1.331       .  A
C751        N755   1.352       .  A
C751       C1056   1.437       .  S
C751        C779   1.437       .  S
N752        C767   1.346       .  A
N752       Co774   2.097   1_565  S
C753        N781   1.330       .  A
C753        C756   1.434       .  S
C753        H787   1.081       .  S
C756        N777   1.348       .  A
C756       C1007   1.412       .  S
N757        N763   1.317       .  A
N758        C784   1.345       .  A
N758        N760   1.317       .  A
N758       Co774   2.096       .  S
N759        C773   1.328   1_545  A
N760        N788   1.315       .  A
N760       Co778   2.037       .  S
H761        C784   1.081       .  S
H762        C779   1.079       .  S
N764       Co778   2.042   1_565  S
N765        N777   1.324       .  A
N765        N781   1.320       .  A
N765       Co774   2.088       .  S
C766        N770   1.336       .  A
C766       C1244   1.442       .  S
C766        C780   1.465       .  S
C767        C786   1.461       .  S
C767        H771   1.081       .  S
N768        C779   1.334       .  A
N768       Co778   2.061       .  S
C772        N788   1.331       .  A
C772       C1009   1.419       .  S
C772        C784   1.461       .  S
Co774      Cl785   2.442       .  S
N775        C786   1.331       .  A
C776       C1012   1.447       .  S
Co778      Cl785   2.453       .  S
C786       C1215   1.419       .  S
C789        N790   1.369       .  A
C789        N794   1.340       .  A
C789       C1005   1.435       .  S
N790        C791   1.373       .  A
C791        N792   1.362       .  A
C791       C1063   1.454       .  S
N792        C793   1.357       .  A
C793        N794   1.340       .  A
C793       C1010   1.415       .  S
C795        N796   1.340       .  A
C795        N800   1.353       .  A
C795       C1008   1.409       .  S
N796        C797   1.341       .  A
C797        N798   1.367       .  A
C797       C1004   1.430       .  S
N798        C799   1.370       .  A
C799        N800   1.357       .  A
C799       C1014   1.444       .  S
C801        N802   1.340       .  A
C801        N806   1.363       .  A
C801       C1025   1.425       .  S
N802        C803   1.341       .  A
C803        N804   1.361       .  A
C803       C1001   1.420       .  S
N804        C805   1.365       .  A
C805        N806   1.366       .  A
C805        C999   1.450       .  S
C807       C1150   1.470       .  S
C807        C808   1.437       .  A
C807        C812   1.426       .  A
C808       C1236   1.462       .  S
C808        C809   1.432       .  A
C809       C1031   1.507       .  S
C809        C810   1.428       .  A
C810       C1000   1.462       .  S
C810        C811   1.435       .  A
C811        C996   1.467       .  S
C811        C812   1.428       .  A
C812        C997   1.499       .  S
C813        N831   1.350       .  A
C813       C1219   1.411       .  S
C813        C850   1.433       .  S
N814        N831   1.324       .  A
N814        N836   1.319       .  A
N814       Co851   2.093   1_565  S
C815        N840   1.362       .  A
C815        C853   1.478       .  S
C815        H860   1.079   1_565  S
H816        C857   1.080   1_545  S
C817        N841   1.330       .  A
C817        C821   1.431       .  S
C817        H846   1.080       .  S
Co818       N836   2.039       .  S
Co818       N826   2.038       .  S
Co818       N858   2.034       .  S
Co818       N834   2.039       .  S
Co818      Cl862   2.455   1_565  S
N819        C857   1.360       .  A
N819        N826   1.318       .  A
N819       Co820   2.136   1_565  S
Co820       N823   2.140       .  S
Co820       N840   2.146   1_545  S
Co820       N827   2.127       .  S
Co820      Cl862   2.434       .  S
C821        N859   1.360       .  A
C821        C990   1.444       .  S
N822        N829   1.319       .  A
N822        N852   1.316       .  A
N822       Co855   2.044       .  S
N823        N841   1.319       .  A
N823        N859   1.336       .  A
N824        C853   1.332       .  A
N824        N834   1.317       .  A
H825        C850   1.081       .  S
N826        N847   1.315       .  A
N827        N845   1.319       .  A
N827        N832   1.334       .  A
C828        N832   1.356       .  A
C828        C992   1.439       .  S
C828        C856   1.433       .  S
N829        C844   1.348       .  A
N829       Co851   2.102       .  S
C830        N858   1.329       .  A
C830        C833   1.433       .  S
C830        H864   1.081       .  S
C833        N854   1.349       .  A
C833       C1170   1.409       .  S
N834        N840   1.318       .  A
N835        C861   1.348       .  A
N835        N837   1.319       .  A
N835       Co851   2.104       .  S
N836        C850   1.330       .  A
N837        N865   1.315       .  A
N837       Co855   2.043       .  S
H838        C861   1.081       .  S
H839        C856   1.080       .  S
N841       Co855   2.043       .  S
N842        N854   1.323       .  A
N842        N858   1.318       .  A
N842       Co851   2.089   1_565  S
C843        N847   1.332       .  A
C843       C1198   1.448       .  S
C843        C857   1.476       .  S
C844        C863   1.463       .  S
C844        H848   1.081       .  S
N845        C856   1.331       .  A
N845       Co855   2.046       .  S
C849        N865   1.331       .  A
C849       C1002   1.425       .  S
C849        C861   1.464       .  S
Co851      Cl862   2.436       .  S
N852        C863   1.332       .  A
C853       C1191   1.450       .  S
Co855      Cl862   2.460       .  S
C863        C994   1.425       .  S
C866        N884   1.363       .  A
C866       C1225   1.450       .  S
C866        C903   1.431       .  S
N867        N884   1.337       .  A
N867        N889   1.319       .  A
N867       Co904   2.149   1_655  S
C868        N893   1.353       .  A
C868        C906   1.471       .  S
C868        H913   1.081       .  S
H869        C910   1.081       .  S
C870        N894   1.328       .  A
C870        C874   1.430       .  S
C870        H899   1.082       .  S
Co871       N889   2.044   1_455  S
Co871       N879   2.039   1_455  S
Co871       N911   2.043       .  S
Co871       N887   2.036       .  S
Co871      Cl915   2.461       .  S
N872        C910   1.354       .  A
N872        N879   1.320       .  A
N872       Co873   2.132   1_655  S
Co873       N876   2.132   1_455  S
Co873       N893   2.124       .  S
Co873       N880   2.127       .  S
Co873      Cl915   2.441       .  S
C874        N912   1.362       .  A
C874       C1003   1.433       .  S
N875        N882   1.320       .  A
N875        N905   1.320       .  A
N875       Co908   2.049   1_655  S
N876        N894   1.318       .  A
N876        N912   1.332       .  A
N877        C906   1.329       .  A
N877        N887   1.315       .  A
H878        C903   1.079       .  S
N879        N900   1.315       .  A
N880        N898   1.320       .  A
N880        N885   1.332       .  A
C881        N885   1.358       .  A
C881        C985   1.427       .  S
C881        C909   1.427       .  S
N882        C897   1.358       .  A
N882       Co904   2.143   1_655  S
C883        N911   1.332       .  A
C883        C886   1.431       .  S
C883        H917   1.080       .  S
C886        N907   1.364       .  A
C886        C983   1.449       .  S
N887        N893   1.320       .  A
N888        C914   1.361       .  A
N888        N890   1.319       .  A
N888       Co904   2.146       .  S
N889        C903   1.333       .  A
N890        N918   1.318       .  A
N890       Co908   2.045       .  S
H891        C914   1.081       .  S
H892        C909   1.081       .  S
N894       Co908   2.032   1_655  S
N895        N907   1.337       .  A
N895        N911   1.319       .  A
N895       Co904   2.146       .  S
C896        N900   1.329       .  A
C896       C1006   1.438       .  S
C896        C910   1.477       .  S
C897        C916   1.476       .  S
C897        H901   1.080       .  S
N898        C909   1.328       .  A
N898       Co908   2.033       .  S
C902        N918   1.332       .  A
C902        C982   1.454       .  S
C902        C914   1.480       .  S
Co904      Cl915   2.439       .  S
N905        C916   1.334       .  A
C906        C988   1.432       .  S
Co908      Cl915   2.461       .  S
C916       C1018   1.453       .  S
C919        N920   1.363       .  A
C919        N924   1.337       .  A
C919        C987   1.429       .  S
N920        C921   1.369       .  A
C921        N922   1.376       .  A
C921        C979   1.466       .  S
N922        C923   1.369       .  A
C923        N924   1.340       .  A
C923        C989   1.438       .  S
C925        N926   1.379       .  A
C925        N930   1.376       .  A
C925        C998   1.488       .  S
N926        C927   1.374       .  A
C927        N928   1.340       .  A
C927        C981   1.448       .  S
N928        C929   1.340       .  A
C929        N930   1.371       .  A
C929       C1155   1.443       .  S
C931        N932   1.338       .  A
C931        N936   1.361       .  A
C931        C986   1.425       .  S
N932        C933   1.341       .  A
C933        N934   1.366       .  A
C933        C991   1.433       .  S
N934        C935   1.372       .  A
C935        N936   1.367       .  A
C935        C995   1.456       .  S
C937        N938   1.381       .  A
C937        N942   1.380       .  A
C937       C1059   1.500       .  S
N938        C939   1.377       .  A
C939        N940   1.341       .  A
C939       C1050   1.454       .  S
N940        C941   1.340       .  A
C941        N942   1.376       .  A
C941       C1046   1.451       .  S
C943        N944   1.370       .  A
C943        N948   1.341       .  A
C943       C1116   1.435       .  S
N944        C945   1.373       .  A
C945        N946   1.359       .  A
C945       C1130   1.452       .  S
N946        C947   1.354       .  A
C947        N948   1.340       .  A
C947       C1120   1.413       .  S
C949        N950   1.369       .  A
C949        N954   1.340       .  A
C949       C1124   1.437       .  S
N950        C951   1.375       .  A
C951        N952   1.370       .  A
C951        C977   1.466       .  S
N952        C953   1.364       .  A
C953        N954   1.338       .  A
C953       C1042   1.430       .  S
C955        N956   1.362       .  A
C955        N960   1.340       .  A
C955       C1054   1.422       .  S
N956        C957   1.365       .  A
C957        N958   1.365       .  A
C957        C975   1.449       .  S
N958        C959   1.362       .  A
C959        N960   1.340       .  A
C959        C993   1.421       .  S
C961        N962   1.376       .  A
C961        N966   1.375       .  A
C961        C973   1.481       .  S
N962        C963   1.371       .  A
C963        N964   1.340       .  A
C963        C984   1.444       .  S
N964        C965   1.341       .  A
C965        N966   1.370       .  A
C965       C1112   1.441       .  S
C967       C1106   1.465       .  S
C967        C968   1.429       .  A
C967        C972   1.434       .  A
C968        C974   1.493       .  S
C968        C969   1.428       .  A
C969        C980   1.477       .  S
C969        C970   1.433       .  A
C970        C976   1.462       .  S
C970        C971   1.430       .  A
C971       C1036   1.496       .  S
C971        C972   1.431       .  A
C972        C978   1.476       .  S
C973        C974   1.233       .  T
C975        C976   1.214       .  T
C977        C978   1.224       .  T
C979        C980   1.224       .  T
C981        C982   1.218       .  T
C983        C984   1.215       .  T
C985        C986   1.202       .  T
C987        C988   1.205       .  T
C989        C990   1.212       .  T
C991        C992   1.208       .  T
C993        C994   1.200       .  T
C995        C996   1.218       .  T
C997        C998   1.237       .  T
C999       C1000   1.214       .  T
C1001      C1002   1.200       .  T
C1003      C1004   1.206       .  T
C1005      C1006   1.209       .  T
C1007      C1008   1.192       .  T
C1009      C1010   1.196       .  T
C1011      C1012   1.214       .  T
C1013      C1014   1.212       .  T
C1015      C1016   1.222       .  T
C1017      C1018   1.216       .  T
C1019      C1020   1.233       .  T
C1021      C1022   1.218       .  T
C1023      C1024   1.198       .  T
C1025      C1026   1.202       .  T
C1027      C1028   1.246       .  T
C1029      C1030   1.218       .  T
C1031      C1032   1.242       .  T
C1033      C1034   1.219       .  T
C1035      C1036   1.236       .  T
C1037      C1038   1.224       .  T
C1039      C1040   1.220       .  T
C1041      C1042   1.206       .  T
C1043      C1044   1.215       .  T
C1045      C1046   1.219       .  T
C1047      C1048   1.202       .  T
C1049      C1050   1.221       .  T
C1051      C1052   1.217       .  T
C1053      C1054   1.200       .  T
C1055      C1056   1.206       .  T
C1057      C1058   1.196       .  T
C1059      C1060   1.244       .  T
C1061      C1062   1.212       .  T
C1063      C1064   1.218       .  T
C1065      C1066   1.225       .  T
C1067      C1068   1.209       .  T
C1069      C1070   1.214       .  T
C1071      C1072   1.217       .  T
C1073      C1074   1.218       .  T
C1075      C1076   1.215       .  T
C1077      C1078   1.209       .  T
C1079      C1080   1.237       .  T
C1081      C1082   1.222       .  T
C1083      C1084   1.231       .  T
C1085      C1086   1.209       .  T
C1087      C1088   1.202       .  T
C1089      C1090   1.219       .  T
C1091      C1092   1.207       .  T
C1093      C1094   1.210       .  T
C1095      C1096   1.207       .  T
C1097      C1098   1.214       .  T
C1099      C1100   1.196       .  T
C1101      C1102   1.208       .  T
C1103      C1104   1.192       .  T
C1105      C1106   1.216       .  T
C1107      C1108   1.205       .  T
C1109      C1110   1.202       .  T
C1111      C1112   1.213       .  T
C1113      C1114   1.201       .  T
C1115      C1116   1.208       .  T
C1117      C1118   1.210       .  T
C1119      C1120   1.194       .  T
C1121      C1122   1.201       .  T
C1123      C1124   1.211       .  T
C1125      C1126   1.208       .  T
C1127      C1128   1.208       .  T
C1129      C1130   1.216       .  T
C1131      C1132   1.222       .  T
C1133      C1134   1.236       .  T
C1135      C1136   1.234       .  T
C1137      C1138   1.212       .  T
C1139      C1140   1.221       .  T
C1141      C1142   1.213       .  T
C1143      C1144   1.219       .  T
C1145      C1146   1.215       .  T
C1147      C1148   1.193       .  T
C1149      C1150   1.219       .  T
C1151      C1152   1.201       .  T
C1153      C1154   1.213       .  T
C1155      C1156   1.214       .  T
C1157      C1158   1.202       .  T
C1159      C1160   1.206       .  T
C1161      C1162   1.219       .  T
C1163      C1164   1.210       .  T
C1165      C1166   1.235       .  T
C1167      C1168   1.238       .  T
C1169      C1170   1.190       .  T
C1171      C1172   1.205       .  T
C1173      C1174   1.210       .  T
C1175      C1176   1.204       .  T
C1177      C1178   1.214       .  T
C1179      C1180   1.224       .  T
C1181      C1182   1.212       .  T
C1183      C1184   1.217       .  T
C1185      C1186   1.217       .  T
C1187      C1188   1.231       .  T
C1189      C1190   1.211       .  T
C1191      C1192   1.216       .  T
C1193      C1194   1.225       .  T
C1195      C1196   1.204       .  T
C1197      C1198   1.215       .  T
C1199      C1200   1.201       .  T
C1201      C1202   1.200       .  T
C1203      C1204   1.213       .  T
C1205      C1206   1.205       .  T
C1207      C1208   1.195       .  T
C1209      C1210   1.193       .  T
C1211      C1212   1.212       .  T
C1213      C1214   1.216       .  T
C1215      C1216   1.197       .  T
C1217      C1218   1.206       .  T
C1219      C1220   1.191       .  T
C1221      C1222   1.205       .  T
C1223      C1224   1.210       .  T
C1225      C1226   1.215       .  T
C1227      C1228   1.217       .  T
C1229      C1230   1.236       .  T
C1231      C1232   1.200       .  T
C1233      C1234   1.206       .  T
C1235      C1236   1.216       .  T
C1237      C1238   1.219       .  T
C1239      C1240   1.213       .  T
C1241      C1242   1.239       .  T
C1243      C1244   1.209       .  T
C1245      C1246   1.205       .  T
C1247      C1248   1.221       .  T
C1249      C1250   1.212       .  T
C1251      C1252   1.214       .  T
C1253      C1254   1.229       .  T
C1255      C1256   1.203       .  T
C1257      C1258   1.208       .  T
C1259      C1260   1.220       .  T
