geometry optimzed in LAMMPS
_audit_creation_date              2020-11-30 
_audit_creation_method            'lammps2cif' 
_symmetry_space_group_name_H-M    'P1' 
_symmetry_Int_Tables_number       1 
_symmetry_cell_setting            triclinic 
loop_ 
_symmetry_equiv_pos_as_xyz 
  x,y,z 
_cell_length_a                    35.17449258824342 
_cell_length_b                    32.07581994539335 
_cell_length_c                    25.68093534775952 
_cell_angle_alpha                 89.366680399704 
_cell_angle_beta                  89.97655056687493 
_cell_angle_gamma                 89.8866079377584 
loop_ 
_atom_site_label 
_atom_site_type_symbol 
_atom_site_fract_x 
_atom_site_fract_y 
_atom_site_fract_z 
_atom_site_charge 
C1          C  0.72426922  0.13654188  0.01040407     0.05090
C2          C  0.68728359  0.12471316  0.99630810    -0.11060
C3          C  0.67152620  0.08803251  0.01691904     0.02590
C4          C  0.69392400  0.06132352  0.04768009    -0.09590
C5          C  0.73068454  0.07257766  0.06215028     0.05080
C6          C  0.74550677  0.11096146  0.04476939    -0.09010
H7          H  0.67004369  0.14517444  0.97212864     0.10670
H8          H  0.68174590  0.03266922  0.06306950     0.08200
H9          H  0.77335298  0.12080134  0.05778884     0.08050
C10         C  0.23357023  0.52403334  0.00826381     0.05090
C11         C  0.25284030  0.03811312  0.05319817    -0.11060
C12         C  0.23957607  0.07360088  0.07915472     0.02590
C13         C  0.20585246  0.09217553  0.06320811    -0.09590
C14         C  0.18794472  0.08107810  0.01679406     0.05080
C15         C  0.20196485  0.04670129  0.98914630    -0.09010
H16         H  0.27803326  0.52206948  0.06719455     0.10670
H17         H  0.19417611  0.11704735  0.08668181     0.08200
H18         H  0.18824186  0.03730426  0.45345354     0.08050
C19         C  0.50206882  0.43333582  0.49030580     0.05090
C20         C  0.51334860  0.47537730  0.49303059    -0.11060
C21         C  0.55173360  0.48512972  0.99901998     0.02590
C22         C  0.57869940  0.45320713  0.50206543    -0.09590
C23         C  0.56814558  0.41147670  0.49747938     0.05080
C24         C  0.52952603  0.40134873  0.49270076    -0.09010
H25         H  0.49242485  0.50010655  0.98993103     0.10670
H26         H  0.60854905  0.46108771  0.50607254     0.08200
H27         H  0.52104231  0.36909786  0.48837205     0.08050
O28         O  0.24250807  0.47963852  0.43378725    -0.55860
C29         C  0.28431894  0.35351759  0.35429795     0.76770
O30         O  0.31975451  0.38694079  0.48887156    -0.57020
C31         C  0.24502086  0.48474161  0.48292001     0.76740
C32         C  0.18849678  0.37359419  0.44555400     0.79140
Cd33       Cd  0.26274130  0.40592509  0.43784325     1.37470
O34         O  0.27944739  0.39265075  0.34695353    -0.55850
O35         O  0.19846647  0.39855199  0.40929772    -0.54660
C36         C  0.34133239  0.40913103  0.45956891     0.79100
O37         O  0.21328582  0.36427617  0.48022097    -0.57040
O38         O  0.27567787  0.33848715  0.39872462    -0.55490
O39         O  0.25660116  0.45388538  0.51005793    -0.55480
O40         O  0.32551682  0.42983014  0.42306696    -0.54650
C41         C  0.00592515  0.22819972  0.47009905     0.05090
C42         C  0.02877779  0.19193141  0.47122182    -0.11060
C43         C  0.06710417  0.19439733  0.45592166     0.02590
C44         C  0.08051845  0.23185073  0.43444114    -0.09590
C45         C  0.06036158  0.26872819  0.44129481     0.05080
C46         C  0.02266936  0.26704609  0.45835595    -0.09010
H47         H  0.01723924  0.16284765  0.48606584     0.10670
H48         H  0.10972722  0.23370386  0.42095693     0.08200
H49         H  0.00654653  0.29565697  0.46226035     0.08050
O50         O  0.77301478  0.27718643  0.37262159    -0.55860
C51         C  0.73888182  0.17753422  0.49348660     0.76770
O52         O  0.82507408  0.26424533  0.51285816    -0.57020
C53         C  0.78660181  0.31327232  0.38152903     0.76740
C54         C  0.69739654  0.30251885  0.48586519     0.79140
Cd55       Cd  0.76468836  0.25865196  0.46419659     1.37470
O56         O  0.73552070  0.19059452  0.44665152    -0.55850
O57         O  0.70171128  0.28064346  0.44549820    -0.54660
C58         C  0.84298689  0.24138183  0.48053005     0.79100
O59         O  0.72419263  0.30267371  0.51940917    -0.57040
O60         O  0.75445260  0.20178207  0.52580474    -0.55490
O61         O  0.78736902  0.32525772  0.42843693    -0.55480
O62         O  0.82381200  0.22654490  0.44322699    -0.54650
C63         C  0.81001143  0.38246453  0.26458462     0.05090
C64         C  0.79043251  0.36774197  0.30920296    -0.11060
C65         C  0.80682809  0.33641291  0.34042933     0.02590
C66         C  0.84345100  0.32283879  0.32969011    -0.09590
C67         C  0.86088282  0.33208679  0.28191848     0.05080
C68         C  0.84401096  0.36261953  0.24934697    -0.09010
H69         H  0.76280354  0.38032643  0.31921927     0.10670
H70         H  0.85707362  0.30191191  0.35737662     0.08200
H71         H  0.85713922  0.37130319  0.21274469     0.08050
C72         C  0.31172914  0.26437991  0.26434369     0.05090
C73         C  0.28965862  0.28941938  0.29786678    -0.11060
C74         C  0.30411438  0.32763388  0.31568649     0.02590
C75         C  0.34125571  0.33897860  0.30275347    -0.09590
C76         C  0.36428746  0.31280550  0.27294619     0.05080
C77         C  0.34901320  0.27651974  0.25180124    -0.09010
H78         H  0.26147716  0.27945976  0.30957293     0.10670
H79         H  0.35316266  0.36738408  0.31849789     0.08200
H80         H  0.36680712  0.25660674  0.22817711     0.08050
C81         C  0.03238090  0.17779642  0.20258014     0.05090
C82         C  0.01401193  0.21597824  0.21276270    -0.11060
C83         C  0.97484293  0.21995738  0.20430351     0.02590
C84         C  0.95486521  0.18692823  0.18218370    -0.09590
C85         C  0.97161061  0.14777510  0.17732930     0.05080
C86         C  0.01067333  0.14324636  0.18673887    -0.09010
H87         H  0.02963518  0.24137238  0.23014851     0.10670
H88         H  0.92437035  0.18994359  0.17674669     0.08200
H89         H  0.02389774  0.11294345  0.18249363     0.08050
O90         O  0.27058297  0.13113578  0.11877262    -0.55860
C91         C  0.29772733  0.22388331  0.24562794     0.76770
O92         O  0.21193293  0.13301515  0.25424817    -0.57020
C93         C  0.25873446  0.09369509  0.12308340     0.76740
C94         C  0.34083300  0.09884428  0.24137294     0.79140
Cd95       Cd  0.27479648  0.14295492  0.21207430     1.37460
O96         O  0.30433324  0.21161954  0.19947351    -0.55850
O97         O  0.34044760  0.12522200  0.20430823    -0.54660
C98         C  0.19522733  0.15669787  0.22102161     0.79100
O99         O  0.31059286  0.09434921  0.26834926    -0.57040
O100        O  0.27984191  0.19906083  0.27562113    -0.55490
O101        O  0.25817791  0.07750174  0.16831396    -0.55480
O102        O  0.21595544  0.17379911  0.18652324    -0.54650
C103        C  0.53565801  0.46621250  0.24794576     0.05090
C104        C  0.52390143  0.42447072  0.25282049    -0.11060
C105        C  0.48558808  0.41552236  0.26159414     0.02590
C106        C  0.45935688  0.44791838  0.26596985    -0.09590
C107        C  0.46993142  0.98931739  0.25729888     0.05080
C108        C  0.50856761  0.99872174  0.24948633    -0.09010
H109        H  0.54426507  0.39930118  0.24897884     0.10670
H110        H  0.42965287  0.44042016  0.27265318     0.08200
H111        H  0.51733299  0.03069259  0.24265532     0.08050
O112        O  0.75528914  0.50783684  0.09624602    -0.55860
C113        C  0.79648833  0.42008290  0.23635131     0.76770
O114        O  0.82199804  0.04291012  0.22452689    -0.57020
C115        C  0.74975281  0.04693250  0.10217156     0.76740
C116        C  0.69579851  0.49133592  0.21173990     0.79140
Cd117      Cd  0.77405372  0.49664957  0.18698606     1.37460
O118        O  0.79832129  0.42394254  0.18686114    -0.55850
O119        O  0.71089921  0.47183207  0.17419556    -0.54660
C120        C  0.84530489  0.03691217  0.18713759     0.79100
O121        O  0.71773491  0.01326192  0.24017681    -0.57040
O122        O  0.78378798  0.45098091  0.26153059    -0.55490
O123        O  0.75794534  0.06252720  0.14603272    -0.55480
O124        O  0.83603744  0.01096362  0.15237701    -0.54650
C125        C  0.60048508  0.48338302  0.28019191     0.25550
C126        C  0.57608807  0.47531961  0.23839911    -0.22560
C127        C  0.59090136  0.47314735  0.18790602     0.20460
C128        C  0.62967694  0.47961162  0.17915251     0.25490
C129        C  0.65438456  0.48798253  0.22105518    -0.22500
C130        C  0.63929968  0.49032322  0.27166603     0.20400
F131        F  0.66233738  0.49709884  0.31310568    -0.12460
F132        F  0.58690202  0.48220632  0.32948317    -0.14820
F133        F  0.64304750  0.47744218  0.12964020    -0.14820
F134        F  0.56795714  0.46326955  0.14740224    -0.12460
C135        C  0.40506460  0.08261725  0.27914116     0.25550
C136        C  0.37393499  0.07161257  0.24794066    -0.22560
C137        C  0.37609037  0.03621110  0.21679244     0.20460
C138        C  0.40837929  0.01115060  0.21783115     0.25490
C139        C  0.43903263  0.02048396  0.25105868    -0.22500
C140        C  0.43748264  0.05691608  0.28104847     0.20400
F141        F  0.46669670  0.06689634  0.31304726    -0.12640
F142        F  0.40399844  0.11805610  0.30750480    -0.14820
F143        F  0.40963544  0.47738282  0.18637617    -0.14820
F144        F  0.34685935  0.02617148  0.18472547    -0.12460
C145        C  0.09871579  0.20116253  0.18480013     0.25550
C146        C  0.07390419  0.17363720  0.21052237    -0.22560
C147        C  0.08908230  0.14179010  0.24244558     0.20460
C148        C  0.12853426  0.13697187  0.24755320     0.25490
C149        C  0.15349377  0.16381906  0.22053973    -0.22500
C150        C  0.13800554  0.19635111  0.18963620     0.20400
F151        F  0.16081743  0.22343180  0.16331162    -0.12460
F152        F  0.08488088  0.23189613  0.15325059    -0.14820
F153        F  0.14217581  0.10520902  0.27753769    -0.14820
F154        F  0.06567146  0.11535005  0.26875407    -0.12460
C155        C  0.88733744  0.08440924  0.13663638     0.25550
C156        C  0.88087173  0.06062011  0.18204082    -0.22560
C157        C  0.90785613  0.06087809  0.22221050     0.20460
C158        C  0.94026800  0.08600679  0.21789664     0.25490
C159        C  0.94561429  0.11179968  0.17377130    -0.22500
C160        C  0.91925459  0.11013018  0.13273656     0.20400
F161        F  0.92303905  0.13577931  0.09061491    -0.12460
F162        F  0.86120197  0.08512292  0.09770909    -0.14820
F163        F  0.96469950  0.08792064  0.25871814    -0.14820
F164        F  0.90233624  0.03760167  0.26602137    -0.12460
C165        C  0.45091099  0.36153897  0.21469639     0.25550
C166        C  0.46989149  0.37322433  0.26041836    -0.22560
C167        C  0.45981049  0.35443689  0.30792268     0.20460
C168        C  0.42719159  0.32982319  0.31097951     0.25490
C169        C  0.40464631  0.32381585  0.26643391    -0.22500
C170        C  0.41813614  0.33708531  0.21766881     0.20400
F171        F  0.39683916  0.33152639  0.17421338    -0.12460
F172        F  0.46023478  0.37985670  0.16862406    -0.14820
F173        F  0.41507451  0.31608276  0.35834803    -0.14820
F174        F  0.47801732  0.36516741  0.35238967    -0.12460
C175        C  0.89441774  0.26319895  0.28007559     0.25550
C176        C  0.89373027  0.30579356  0.26530462    -0.22560
C177        C  0.92388079  0.32140480  0.23428051     0.20460
C178        C  0.95229456  0.29429026  0.21587103     0.25490
C179        C  0.95181689  0.25198842  0.23051620    -0.22500
C180        C  0.92418708  0.23770947  0.26566418     0.20400
F181        F  0.92414921  0.19737407  0.28256187    -0.12460
F182        F  0.86488051  0.24466277  0.30529166    -0.14820
F183        F  0.97913980  0.30885167  0.18238399    -0.14820
F184        F  0.92563771  0.36243329  0.22107445    -0.12460
C185        C  0.90752628  0.25425621  0.52012126     0.25550
C186        C  0.88454351  0.23322811  0.48398651    -0.22560
C187        C  0.90219426  0.20647318  0.44784585     0.20460
C188        C  0.94172214  0.20294200  0.44584774     0.25490
C189        C  0.96455800  0.22599182  0.47968071    -0.22500
C190        C  0.94721687  0.25078639  0.51777360     0.20400
F191        F  0.96877561  0.27257772  0.05173764    -0.12460
F192        F  0.89178725  0.27959884  0.05624355    -0.14820
F193        F  0.95779789  0.17918969  0.40826334    -0.14820
F194        F  0.88143938  0.18489173  0.41267016    -0.12460
C195        C  0.13312472  0.34118708  0.49214482     0.25550
C196        C  0.15014590  0.35487836  0.44552962    -0.22560
C197        C  0.13151690  0.34746768  0.39790413     0.20460
C198        C  0.09853105  0.32326575  0.39666362     0.25490
C199        C  0.08316892  0.30705573  0.44295039    -0.22500
C200        C  0.09963972  0.31780105  0.49085522     0.20400
F201        F  0.08572566  0.30145627  0.03606272    -0.12460
F202        F  0.14987088  0.34855009  0.03877025    -0.14820
F203        F  0.08377485  0.31208713  0.35002186    -0.14820
F204        F  0.14718471  0.36009374  0.35205747    -0.12460
C205        C  0.44477617  0.43460603  0.43392493     0.25550
C206        C  0.46177797  0.42336942  0.48131469    -0.22560
C207        C  0.43976315  0.40440246  0.02050230     0.20460
C208        C  0.40060638  0.39872395  0.01347032     0.25490
C209        C  0.38310902  0.41159569  0.46665659    -0.22500
C210        C  0.40594947  0.42843319  0.42635301     0.20400
F211        F  0.39080319  0.43923480  0.37946273    -0.12460
F212        F  0.46588506  0.45182966  0.39498689    -0.14820
F213        F  0.37980481  0.38208173  0.05305608    -0.14820
F214        F  0.45607029  0.39290730  0.06626306    -0.12460
C215        C  0.62654298  0.38604009  0.45389303     0.25550
C216        C  0.59870512  0.38012081  0.49259414    -0.22560
C217        C  0.60291008  0.34731001  0.52895395     0.20460
C218        C  0.63548892  0.32193333  0.52783922     0.25490
C219        C  0.66370044  0.32910654  0.49011066    -0.22500
C220        C  0.65865123  0.36070813  0.45265231     0.20400
F221        F  0.68540579  0.36757180  0.41535534    -0.12460
F222        F  0.62285275  0.41696123  0.41764210    -0.14820
F223        F  0.63929884  0.29020357  0.56286483    -0.14820
F224        F  0.57620330  0.34078843  0.56630274    -0.12460
C225        C  0.12238751  0.09261133  0.97676221     0.25550
C226        C  0.15658328  0.10834573  0.99752887    -0.22560
C227        C  0.16003692  0.15162689  0.00439696     0.20460
C228        C  0.12957984  0.17786063  0.99543267     0.25490
C229        C  0.09611017  0.16309540  0.47205842    -0.22500
C230        C  0.09254910  0.12004308  0.46305537     0.20400
F231        F  0.06054898  0.10464918  0.44097569    -0.12460
F232        F  0.11757449  0.05098517  0.97063628    -0.14820
F233        F  0.13313788  0.21832347  0.00985996    -0.14820
F234        F  0.19320559  0.16909098  0.02023087    -0.12460
C235        C  0.57546055  0.04508039  0.04791473     0.25550
C236        C  0.56623303  0.02806761  0.99957662    -0.22560
C237        C  0.58528689  0.04259262  0.45483000     0.20460
C238        C  0.61815765  0.06666270  0.45952504     0.25490
C239        C  0.63125600  0.07725857  0.00910569    -0.22500
C240        C  0.60808491  0.06941765  0.05281739     0.20400
F241        F  0.61943839  0.08124217  0.10097673    -0.12460
F242        F  0.55607795  0.03327169  0.09126508    -0.14820
F243        F  0.63968224  0.07461411  0.41666517    -0.14820
F244        F  0.57527733  0.02817000  0.40750020    -0.12460
C245        C  0.72429631  0.13658501  0.51045569     0.05090
C246        C  0.68731100  0.12476112  0.49635264    -0.11060
C247        C  0.67154702  0.08808349  0.51696123     0.02590
C248        C  0.69393770  0.06137230  0.54772829    -0.09590
C249        C  0.73069833  0.07262051  0.56220480     0.05080
C250        C  0.74552739  0.11100234  0.54482660    -0.09010
H251        H  0.67007693  0.14522274  0.47216571     0.10670
H252        H  0.68175531  0.03271846  0.56311233     0.08200
H253        H  0.77337441  0.12083716  0.55784870     0.08050
C254        C  0.23359853  0.52405124  0.50823629     0.05090
C255        C  0.25286242  0.03813178  0.55317529    -0.11060
C256        C  0.23959548  0.07362080  0.57912673     0.02590
C257        C  0.20587471  0.09219611  0.56317029    -0.09590
C258        C  0.18797259  0.08109708  0.51675288     0.05080
C259        C  0.20199553  0.04671892  0.48911026    -0.09010
H260        H  0.27805316  0.52208788  0.56717897     0.10670
H261        H  0.19419601  0.11706962  0.58663912     0.08200
H262        H  0.18820711  0.03728760  0.95349211     0.08050
C263        C  0.50203548  0.43329514  0.99030926     0.05090
C264        C  0.51331592  0.47533671  0.99303819    -0.11060
C265        C  0.55176790  0.48517090  0.49899448     0.02590
C266        C  0.57866374  0.45316575  0.00210425    -0.09590
C267        C  0.56811095  0.41143584  0.99750930     0.05080
C268        C  0.52949240  0.40130785  0.99271524    -0.09010
H269        H  0.49245595  0.50014621  0.48993316     0.10670
H270        H  0.60851274  0.46104613  0.00612122     0.08200
H271        H  0.52101008  0.36905720  0.98837967     0.08050
O272        O  0.24246943  0.47962266  0.93381114    -0.55860
C273        C  0.28428551  0.35351759  0.85430208     0.76770
O274        O  0.31971940  0.38690951  0.98886958    -0.57020
C275        C  0.24498850  0.48472417  0.98294350     0.76740
C276        C  0.18845796  0.37357525  0.94557671     0.79140
Cd277      Cd  0.26270166  0.40590926  0.93785804     1.37470
O278        O  0.27940884  0.39265074  0.84696480    -0.55850
O279        O  0.19842513  0.39853231  0.90931838    -0.54660
C280        C  0.34129426  0.40910935  0.95957395     0.79100
O281        O  0.21324940  0.36425832  0.98024078    -0.57040
O282        O  0.27564276  0.33847965  0.89872413    -0.55490
O283        O  0.25657103  0.45386671  0.01007742    -0.55480
O284        O  0.32547389  0.42982087  0.92308702    -0.54650
C285        C  0.00588941  0.22817398  0.97013466     0.05090
C286        C  0.02874365  0.19190717  0.97126287    -0.11060
C287        C  0.06707171  0.19437572  0.95597174     0.02590
C288        C  0.08048637  0.23182990  0.93449394    -0.09590
C289        C  0.06032613  0.26870598  0.94134076     0.05080
C290        C  0.02263228  0.26702158  0.95839497    -0.09010
H291        H  0.01720440  0.16282244  0.98610279     0.10670
H292        H  0.10969625  0.23368478  0.92101459     0.08200
H293        H  0.00650664  0.29563103  0.96229485     0.08050
O294        O  0.77298420  0.27715823  0.87259971    -0.55860
C295        C  0.73884818  0.17749576  0.99344233     0.76770
O296        O  0.82503304  0.26421047  0.01284834    -0.57020
C297        C  0.78656943  0.31324428  0.88151058     0.76740
C298        C  0.69736281  0.30248291  0.98586418     0.79140
Cd299      Cd  0.76465233  0.25861938  0.96417346     1.37470
O300        O  0.73548310  0.19056352  0.94661100    -0.55850
O301        O  0.70167340  0.28061297  0.94549186    -0.54660
C302        C  0.84294994  0.24135088  0.98052030     0.79100
O303        O  0.72416241  0.30263389  0.01940267    -0.57040
O304        O  0.75441974  0.20173934  0.02576454    -0.55490
O305        O  0.78733129  0.32522861  0.92841892    -0.55480
O306        O  0.82377937  0.22651738  0.94321111    -0.54650
C307        C  0.80999760  0.38245286  0.76458656     0.05090
C308        C  0.79041292  0.36772507  0.80919766    -0.11060
C309        C  0.80680060  0.33638572  0.84041582     0.02590
C310        C  0.84342201  0.32280643  0.82967728    -0.09590
C311        C  0.86086062  0.33206315  0.78191279     0.05080
C312        C  0.84399604  0.36260563  0.74934841    -0.09010
H313        H  0.76278556  0.38031347  0.81921455     0.10670
H314        H  0.85703915  0.30187157  0.85735954     0.08200
H315        H  0.85712955  0.37129558  0.71275189     0.08050
C316        C  0.31172284  0.26439246  0.76434643     0.05090
C317        C  0.28964235  0.28942768  0.79786172    -0.11060
C318        C  0.30409009  0.32764259  0.81569070     0.02590
C319        C  0.34123332  0.33899249  0.80277466    -0.09590
C320        C  0.36427538  0.31282299  0.77297666     0.05080
C321        C  0.34900898  0.27653653  0.75182168    -0.09010
H322        H  0.26145956  0.27946376  0.80955614     0.10670
H323        H  0.35313358  0.36739836  0.81852739     0.08200
H324        H  0.36681023  0.25662561  0.72820510     0.08050
C325        C  0.03238450  0.17779428  0.70260051     0.05090
C326        C  0.01400857  0.21597286  0.71278065    -0.11060
C327        C  0.97483948  0.21994481  0.70431435     0.02590
C328        C  0.95486979  0.18691246  0.68218824    -0.09590
C329        C  0.97162098  0.14776187  0.67734046     0.05080
C330        C  0.01068323  0.14324006  0.68675712    -0.09010
H331        H  0.02962641  0.24136985  0.73016897     0.10670
H332        H  0.92437527  0.18992241  0.67674306     0.08200
H333        H  0.02391210  0.11293915  0.68251531     0.08050
O334        O  0.27059016  0.13115817  0.61875699    -0.55860
C335        C  0.29772813  0.22389498  0.74562428     0.76770
O336        O  0.21194265  0.13302115  0.75424181    -0.57020
C337        C  0.25874777  0.09371471  0.62306067     0.76740
C338        C  0.34084108  0.09885766  0.74135952     0.79140
Cd339      Cd  0.27480339  0.14296724  0.71206053     1.37460
O340        O  0.30433759  0.21163555  0.69946897    -0.55850
O341        O  0.34045880  0.12524408  0.70430443    -0.54660
C342        C  0.19523319  0.15670528  0.72102060     0.79100
O343        O  0.31059756  0.09435376  0.76832635    -0.57040
O344        O  0.27984388  0.19906810  0.77561300    -0.55490
O345        O  0.25819332  0.07751613  0.66828829    -0.55480
O346        O  0.21595757  0.17380842  0.68651949    -0.54650
C347        C  0.53566368  0.46621576  0.74799159     0.05090
C348        C  0.52390466  0.42447563  0.75288162    -0.11060
C349        C  0.48558845  0.41553143  0.76164080     0.02590
C350        C  0.45935750  0.44793022  0.76599029    -0.09590
C351        C  0.46993558  0.98932666  0.75730651     0.05080
C352        C  0.50857371  0.99872658  0.74950355    -0.09010
H353        H  0.54426841  0.39930405  0.74906053     0.10670
H354        H  0.42965204  0.44043534  0.77266726     0.08200
H355        H  0.51734173  0.03069513  0.74266142     0.08050
O356        O  0.75529340  0.50786951  0.59628072    -0.55860
C357        C  0.79648170  0.42007873  0.73636233     0.76770
O358        O  0.82201405  0.04290121  0.72455484    -0.57020
C359        C  0.74976253  0.04696465  0.60221935     0.76740
C360        C  0.69580263  0.49134365  0.71177510     0.79140
Cd361      Cd  0.77405720  0.49665644  0.68701484     1.37460
O362        O  0.79831157  0.42394394  0.68687247    -0.55850
O363        O  0.71089804  0.47185224  0.67421646    -0.54660
C364        C  0.84531635  0.03690147  0.68716053     0.79100
O365        O  0.71774306  0.01325822  0.74021956    -0.57040
O366        O  0.78379024  0.45097699  0.76154948    -0.55490
O367        O  0.75795595  0.06254810  0.64608676    -0.55480
O368        O  0.83604106  0.01095744  0.65239841    -0.54650
C369        C  0.60050086  0.48333734  0.78024742     0.25550
C370        C  0.57609514  0.47531921  0.73844911    -0.22560
C371        C  0.59089958  0.47319308  0.68794747     0.20460
C372        C  0.62967468  0.47965887  0.67919104     0.25490
C373        C  0.65438996  0.48798859  0.72109814    -0.22500
C374        C  0.63931451  0.49028237  0.77171814     0.20400
F375        F  0.66236082  0.49701605  0.81316009    -0.12460
F376        F  0.58692730  0.48211553  0.82954309    -0.14820
F377        F  0.64303761  0.47753119  0.62967151    -0.14820
F378        F  0.56794739  0.46335490  0.64743677    -0.12460
C379        C  0.40507639  0.08263717  0.77911922     0.25550
C380        C  0.37394395  0.07162709  0.74792715    -0.22560
C381        C  0.37609621  0.03621957  0.71678912     0.20460
C382        C  0.40838449  0.01115784  0.71783155     0.25490
C383        C  0.43903969  0.02049557  0.75105408    -0.22500
C384        C  0.43749318  0.05693445  0.78103160     0.20400
F385        F  0.46670892  0.06691941  0.81302517    -0.12640
F386        F  0.40401327  0.11808160  0.80747231    -0.14820
F387        F  0.40963776  0.47738399  0.68638661    -0.14820
F388        F  0.34686285  0.02617516  0.68472858    -0.12460
C389        C  0.09871704  0.20117122  0.68482320     0.25550
C390        C  0.07390841  0.17364198  0.71054450    -0.22560
C391        C  0.08909045  0.14179352  0.74246224     0.20460
C392        C  0.12854301  0.13697648  0.74756302     0.25490
C393        C  0.15349940  0.16382623  0.72054816    -0.22500
C394        C  0.13800748  0.19636096  0.68965254     0.20400
F395        F  0.16081643  0.22344473  0.66332809    -0.12460
F396        F  0.08487860  0.23190639  0.65327900    -0.14820
F397        F  0.14218809  0.10521160  0.77754108    -0.14820
F398        F  0.06568282  0.11534987  0.76877048    -0.12460
C399        C  0.88735887  0.08438020  0.63664692     0.25550
C400        C  0.88088654  0.06060341  0.68205986    -0.22560
C401        C  0.90786544  0.06087235  0.72223622     0.20460
C402        C  0.94027763  0.08600027  0.71792033     0.25490
C403        C  0.94562950  0.11178213  0.67378635    -0.22500
C404        C  0.91927608  0.11010097  0.63274518     0.20400
F405        F  0.92306543  0.13574044  0.59061528    -0.12460
F406        F  0.86122854  0.08508444  0.59771304    -0.14820
F407        F  0.96470293  0.08792601  0.75874775    -0.14820
F408        F  0.90233927  0.03760848  0.76605589    -0.12460
C409        C  0.45092664  0.36152780  0.71475542     0.25550
C410        C  0.46989009  0.37323332  0.76048252    -0.22560
C411        C  0.45978790  0.35446973  0.80799282     0.20460
C412        C  0.42716522  0.32986163  0.81104381     0.25490
C413        C  0.40463621  0.32383620  0.76648655    -0.22500
C414        C  0.41814700  0.33708092  0.71772187     0.20400
F415        F  0.39686748  0.33150311  0.67425447    -0.12460
F416        F  0.46027404  0.37981727  0.66867491    -0.14820
F417        F  0.41503019  0.31614249  0.85841307    -0.14820
F418        F  0.47797862  0.36521865  0.85246499    -0.12460
C419        C  0.89439249  0.26317411  0.78005736     0.25550
C420        C  0.89370936  0.30577142  0.76529938    -0.22560
C421        C  0.92386721  0.32138764  0.73429256     0.20460
C422        C  0.95228544  0.29427606  0.71588829     0.25490
C423        C  0.95180447  0.25197165  0.73052200    -0.22500
C424        C  0.92416559  0.23768714  0.76565347     0.20400
F425        F  0.92412426  0.19734970  0.78254332    -0.12460
F426        F  0.86484883  0.24463404  0.80525470    -0.14820
F427        F  0.97913904  0.30884337  0.68241791    -0.14820
F428        F  0.92562770  0.36241848  0.72109931    -0.12460
C429        C  0.90748251  0.25420976  0.02014145     0.25550
C430        C  0.88450630  0.23319758  0.98398408    -0.22560
C431        C  0.90216373  0.20645889  0.94783057     0.20460
C432        C  0.94169182  0.20292821  0.94584422     0.25490
C433        C  0.96452118  0.22596259  0.97970143    -0.22500
C434        C  0.94717358  0.25074107  0.01780478     0.20400
F435        F  0.96882452  0.27263742  0.55168527    -0.12460
F436        F  0.89183772  0.27966241  0.55620994    -0.14820
F437        F  0.95777489  0.17919252  0.90824913    -0.14820
F438        F  0.88141575  0.18489405  0.91263128    -0.12460
C439        C  0.13308888  0.34117028  0.99217669     0.25550
C440        C  0.15010701  0.35485937  0.94555836    -0.22560
C441        C  0.13147463  0.34744679  0.89793586     0.20460
C442        C  0.09848880  0.32324451  0.89670129     0.25490
C443        C  0.08313019  0.30703597  0.94299109    -0.22500
C444        C  0.09960392  0.31778391  0.99089301     0.20400
F445        F  0.08575830  0.30147165  0.53602212    -0.12460
F446        F  0.14990369  0.34856457  0.53874104    -0.14820
F447        F  0.08372970  0.31206340  0.85006220    -0.14820
F448        F  0.14713925  0.36007105  0.85208640    -0.12460
C449        C  0.44473014  0.43464089  0.93395160     0.25550
C450        C  0.46174476  0.42333020  0.98130655    -0.22560
C451        C  0.43978458  0.40451439  0.52055143     0.20460
C452        C  0.40062958  0.39882564  0.51351516     0.25490
C453        C  0.38307258  0.41157102  0.96665252    -0.22500
C454        C  0.40590281  0.42847469  0.92638025     0.20400
F455        F  0.39074663  0.43934899  0.87952123    -0.12460
F456        F  0.46582797  0.45192643  0.89504441    -0.14820
F457        F  0.37981567  0.38225457  0.55313462    -0.14820
F458        F  0.45607857  0.39310280  0.56635245    -0.12460
C459        C  0.62651106  0.38601114  0.95392109     0.25550
C460        C  0.59867196  0.38008262  0.99261847    -0.22560
C461        C  0.60287625  0.34726428  0.02896764     0.20460
C462        C  0.63545541  0.32188827  0.02784556     0.25490
C463        C  0.66366786  0.32907052  0.99012076    -0.22500
C464        C  0.65861976  0.36068067  0.95267377     0.20400
F465        F  0.68537530  0.36755311  0.91538054    -0.12460
F466        F  0.62282136  0.41693959  0.91767982    -0.14820
F467        F  0.63926458  0.29015039  0.06285981    -0.14820
F468        F  0.57616822  0.34073397  0.06631246    -0.12460
C469        C  0.12241795  0.09263134  0.47671386     0.25550
C470        C  0.15661417  0.10836510  0.49747959    -0.22560
C471        C  0.16007006  0.15164646  0.50434313     0.20460
C472        C  0.12961417  0.17788144  0.49537686     0.25490
C473        C  0.09607723  0.16307424  0.97211101    -0.22500
C474        C  0.09251784  0.12002224  0.96310506     0.20400
F475        F  0.06051887  0.10462788  0.94102275    -0.12460
F476        F  0.11760345  0.05100502  0.47059140    -0.14820
F477        F  0.13317412  0.21834472  0.50980135    -0.14820
F478        F  0.19323926  0.16910898  0.52017777    -0.12460
C479        C  0.57547541  0.04512458  0.54790296     0.25550
C480        C  0.56626560  0.02810953  0.49955987    -0.22560
C481        C  0.58524123  0.04254926  0.95483524     0.20460
C482        C  0.61811703  0.06661442  0.95951172     0.25490
C483        C  0.63127965  0.07730909  0.50912627    -0.22500
C484        C  0.60809589  0.06946575  0.55282461     0.20400
F485        F  0.61943355  0.08129164  0.60099035    -0.12460
F486        F  0.55607922  0.03331553  0.59124150    -0.14820
F487        F  0.63962862  0.07456471  0.91663933    -0.14820
F488        F  0.57521321  0.02813014  0.90751021    -0.12460
C489        C  0.72426919  0.63654190  0.01040407     0.05090
C490        C  0.68728355  0.62471320  0.99630810    -0.11060
C491        C  0.67152615  0.58803254  0.01691903     0.02590
C492        C  0.69392395  0.56132355  0.04768005    -0.09590
C493        C  0.73068451  0.57257766  0.06215023     0.05080
C494        C  0.74550674  0.61096147  0.04476935    -0.09010
H495        H  0.67004366  0.64517449  0.97212866     0.10670
H496        H  0.68174585  0.53266923  0.06306944     0.08200
H497        H  0.77335296  0.62080133  0.05778879     0.08050
C498        C  0.23357027  0.02403338  0.00826373     0.05090
C499        C  0.25284025  0.53811307  0.05319826    -0.11060
C500        C  0.23957600  0.57360081  0.07915483     0.02590
C501        C  0.20585237  0.59217545  0.06320822    -0.09590
C502        C  0.18794466  0.58107804  0.01679415     0.05080
C503        C  0.20196481  0.54670124  0.98914638    -0.09010
H504        H  0.27803330  0.02206951  0.06719447     0.10670
H505        H  0.19417601  0.61704726  0.08668193     0.08200
H506        H  0.18824182  0.53730422  0.45345365     0.08050
C507        C  0.50206882  0.93333585  0.49030584     0.05090
C508        C  0.51334857  0.97537734  0.49303065    -0.11060
C509        C  0.55173361  0.98512972  0.99902007     0.02590
C510        C  0.57869938  0.95320722  0.50206562    -0.09590
C511        C  0.56814560  0.91147679  0.49747952     0.05080
C512        C  0.52952606  0.90134878  0.49270083    -0.09010
H513        H  0.49242486  0.00010656  0.98993112     0.10670
H514        H  0.60854902  0.96108783  0.50607279     0.08200
H515        H  0.52104236  0.86909791  0.48837209     0.08050
O516        O  0.24250809  0.97963854  0.43378718    -0.55860
C517        C  0.28431895  0.85351761  0.35429792     0.76770
O518        O  0.31975453  0.88694080  0.48887155    -0.57020
C519        C  0.24502088  0.98474166  0.48291994     0.76740
C520        C  0.18849681  0.87359420  0.44555405     0.79140
Cd521      Cd  0.26274132  0.90592510  0.43784322     1.37470
O522        O  0.27944740  0.89265077  0.34695350    -0.55850
O523        O  0.19846647  0.89855199  0.40929775    -0.54660
C524        C  0.34133241  0.90913103  0.45956889     0.79100
O525        O  0.21328587  0.86427620  0.48022101    -0.57040
O526        O  0.27567788  0.83848717  0.39872459    -0.55490
O527        O  0.25660120  0.95388544  0.51005787    -0.55480
O528        O  0.32551685  0.92983014  0.42306694    -0.54650
C529        C  0.00592516  0.72819973  0.47009920     0.05090
C530        C  0.02877779  0.69193141  0.47122195    -0.11060
C531        C  0.06710418  0.69439733  0.45592184     0.02590
C532        C  0.08051847  0.73185074  0.43444137    -0.09590
C533        C  0.06036161  0.76872820  0.44129504     0.05080
C534        C  0.02266938  0.76704610  0.45835615    -0.09010
H535        H  0.01723922  0.66284764  0.48606593     0.10670
H536        H  0.10972726  0.73370387  0.42095718     0.08200
H537        H  0.00654655  0.79565699  0.46226057     0.08050
O538        O  0.77301481  0.77718625  0.37262161    -0.55860
C539        C  0.73888179  0.67753428  0.49348672     0.76770
O540        O  0.82507411  0.76424542  0.51285819    -0.57020
C541        C  0.78660177  0.81327219  0.38152888     0.76740
C542        C  0.69739658  0.80251896  0.48586536     0.79140
Cd543      Cd  0.76468836  0.75865201  0.46419666     1.37470
O544        O  0.73552062  0.69059461  0.44665165    -0.55850
O545        O  0.70171125  0.78064351  0.44549841    -0.54660
C546        C  0.84298690  0.74138190  0.48053008     0.79100
O547        O  0.72419273  0.80267386  0.51940925    -0.57040
O548        O  0.75445263  0.70178211  0.52580482    -0.55490
O549        O  0.78736891  0.82525775  0.42843671    -0.55480
O550        O  0.82381198  0.72654494  0.44322706    -0.54650
C551        C  0.81001143  0.88246454  0.26458458     0.05090
C552        C  0.79043256  0.86774199  0.30920297    -0.11060
C553        C  0.80682803  0.83641270  0.34042908     0.02590
C554        C  0.84345081  0.82283831  0.32968956    -0.09590
C555        C  0.86088259  0.83208643  0.28191795     0.05080
C556        C  0.84401083  0.86261939  0.24934669    -0.09010
H557        H  0.76280369  0.88032660  0.31921949     0.10670
H558        H  0.85707337  0.80191120  0.35737586     0.08200
H559        H  0.85713907  0.87130310  0.21274441     0.08050
C560        C  0.31172914  0.76437992  0.26434367     0.05090
C561        C  0.28965862  0.78941940  0.29786675    -0.11060
C562        C  0.30411438  0.82763389  0.31568646     0.02590
C563        C  0.34125572  0.83897860  0.30275345    -0.09590
C564        C  0.36428747  0.81280549  0.27294618     0.05080
C565        C  0.34901321  0.77651974  0.25180123    -0.09010
H566        H  0.26147715  0.77945979  0.30957290     0.10670
H567        H  0.35316267  0.86738408  0.31849787     0.08200
H568        H  0.36680712  0.75660672  0.22817712     0.08050
C569        C  0.03238085  0.67779620  0.20257995     0.05090
C570        C  0.01401174  0.71597797  0.21276235    -0.11060
C571        C  0.97484276  0.71995698  0.20430291     0.02590
C572        C  0.95486521  0.68692776  0.18218294    -0.09590
C573        C  0.97161073  0.64777467  0.17732878     0.05080
C574        C  0.01067342  0.64324606  0.18673861    -0.09010
H575        H  0.02963486  0.74137217  0.23014825     0.10670
H576        H  0.92437037  0.68994303  0.17674568     0.08200
H577        H  0.02389791  0.61294317  0.18249353     0.08050
O578        O  0.27058289  0.63113574  0.11877268    -0.55860
C579        C  0.29772732  0.72388332  0.24562795     0.76770
O580        O  0.21193289  0.63301517  0.25424825    -0.57020
C581        C  0.25873439  0.59369505  0.12308349     0.76740
C582        C  0.34083300  0.59884431  0.24137286     0.79140
Cd583      Cd  0.27479644  0.64295493  0.21207433     1.37460
O584        O  0.30433318  0.71161955  0.19947350    -0.55850
O585        O  0.34044754  0.62522199  0.20430811    -0.54660
C586        C  0.19522728  0.65669789  0.22102171     0.79100
O587        O  0.31059290  0.59434927  0.26834928    -0.57040
O588        O  0.27984192  0.69906083  0.27562116    -0.55490
O589        O  0.25817784  0.57750173  0.16831407    -0.55480
O590        O  0.21595538  0.67379914  0.18652333    -0.54650
C591        C  0.53565801  0.96621249  0.24794602     0.05090
C592        C  0.52390145  0.92447070  0.25282072    -0.11060
C593        C  0.48558810  0.91552232  0.26159432     0.02590
C594        C  0.45935688  0.94791832  0.26597003    -0.09590
C595        C  0.46993144  0.48931745  0.25729868     0.05080
C596        C  0.50856763  0.49872177  0.24948609    -0.09010
H597        H  0.54426510  0.89930118  0.24897906     0.10670
H598        H  0.42965287  0.94042007  0.27265335     0.08200
H599        H  0.51733302  0.53069261  0.24265506     0.08050
O600        O  0.75528918  0.00783689  0.09624621    -0.55860
C601        C  0.79648836  0.92008298  0.23635139     0.76770
O602        O  0.82199818  0.54290985  0.22452652    -0.57020
C603        C  0.74975279  0.54693245  0.10217145     0.76740
C604        C  0.69579849  0.99133607  0.21174017     0.79140
Cd605      Cd  0.77405371  0.99664973  0.18698631     1.37460
O606        O  0.79832133  0.92394272  0.18686122    -0.55850
O607        O  0.71089919  0.97183225  0.17419581    -0.54660
C608        C  0.84530499  0.53691183  0.18713719     0.79100
O609        O  0.71773493  0.51326179  0.24017652    -0.57040
O610        O  0.78378800  0.95098095  0.26153075    -0.55490
O611        O  0.75794537  0.56252711  0.14603262    -0.55480
O612        O  0.83603745  0.51096331  0.15237662    -0.54650
C613        C  0.60048507  0.98338302  0.28019220     0.25550
C614        C  0.57608807  0.97531964  0.23839939    -0.22560
C615        C  0.59090135  0.97314746  0.18790629     0.20460
C616        C  0.62967692  0.97961176  0.17915279     0.25490
C617        C  0.65438454  0.98798265  0.22105546    -0.22500
C618        C  0.63929967  0.99032326  0.27166632     0.20400
F619        F  0.66233737  0.99709885  0.31310598    -0.12460
F620        F  0.58690202  0.98220625  0.32948346    -0.14820
F621        F  0.64304748  0.97744240  0.12964047    -0.14820
F622        F  0.56795714  0.96326969  0.14740250    -0.12460
C623        C  0.40506460  0.58261726  0.27914110     0.25550
C624        C  0.37393501  0.57161262  0.24794053    -0.22560
C625        C  0.37609042  0.53621120  0.21679221     0.20460
C626        C  0.40837934  0.51115071  0.21783091     0.25490
C627        C  0.43903266  0.52048403  0.25105849    -0.22500
C628        C  0.43748265  0.55691610  0.28104837     0.20400
F629        F  0.46669669  0.56689632  0.31304721    -0.12640
F630        F  0.40399841  0.61805606  0.30750483    -0.14820
F631        F  0.40963536  0.97738268  0.18637646    -0.14820
F632        F  0.34685942  0.52617162  0.18472520    -0.12460
C633        C  0.09871573  0.70116251  0.18480022     0.25550
C634        C  0.07390414  0.67363712  0.21052237    -0.22560
C635        C  0.08908226  0.64179003  0.24244559     0.20460
C636        C  0.12853422  0.63697184  0.24755327     0.25490
C637        C  0.15349372  0.66381907  0.22053984    -0.22500
C638        C  0.13800548  0.69635115  0.18963635     0.20400
F639        F  0.16081736  0.72343187  0.16331184    -0.12460
F640        F  0.08488082  0.73189610  0.15325068    -0.14820
F641        F  0.14217579  0.60520899  0.27753774    -0.14820
F642        F  0.06567143  0.61534993  0.26875402    -0.12460
C643        C  0.88733779  0.58440850  0.13663575     0.25550
C644        C  0.88087190  0.56061966  0.18204038    -0.22560
C645        C  0.90785613  0.56087788  0.22221025     0.20460
C646        C  0.94026803  0.58600655  0.21789638     0.25490
C647        C  0.94561449  0.61179917  0.17377085    -0.22500
C648        C  0.91925496  0.61012942  0.13273592     0.20400
F649        F  0.92303958  0.63577832  0.09061408    -0.12460
F650        F  0.86120247  0.58512196  0.09770827    -0.14820
F651        F  0.96469936  0.58792067  0.25871806    -0.14820
F652        F  0.90233607  0.53760176  0.26602132    -0.12460
C653        C  0.45091104  0.86153894  0.21469649     0.25550
C654        C  0.46989152  0.87322428  0.26041848    -0.22560
C655        C  0.45981050  0.85443681  0.30792278     0.20460
C656        C  0.42719160  0.82982312  0.31097956     0.25490
C657        C  0.40464633  0.82381582  0.26643394    -0.22500
C658        C  0.41813619  0.83708530  0.21766886     0.20400
F659        F  0.39683922  0.83152641  0.17421341    -0.12460
F660        F  0.46023486  0.87985669  0.16862418    -0.14820
F661        F  0.41507449  0.81608267  0.35834806    -0.14820
F662        F  0.47801732  0.86516730  0.35238980    -0.12460
C663        C  0.89441716  0.76319843  0.28007444     0.25550
C664        C  0.89372992  0.80579313  0.26530386    -0.22560
C665        C  0.92388059  0.82140440  0.23428005     0.20460
C666        C  0.95229436  0.79428986  0.21587060     0.25490
C667        C  0.95181651  0.75198794  0.23051544    -0.22500
C668        C  0.92418649  0.73770891  0.26566304     0.20400
F669        F  0.92414845  0.69737345  0.28256050    -0.12460
F670        F  0.86487979  0.74466227  0.30529020    -0.14820
F671        F  0.97913980  0.80885135  0.18238392    -0.14820
F672        F  0.92563767  0.86243296  0.22107433    -0.12460
C673        C  0.90752628  0.75425604  0.52012148     0.25550
C674        C  0.88454352  0.73322817  0.48398650    -0.22560
C675        C  0.90219428  0.70647345  0.44784561     0.20460
C676        C  0.94172216  0.70294225  0.44584753     0.25490
C677        C  0.96455801  0.72599184  0.47968077    -0.22500
C678        C  0.94721687  0.75078620  0.51777385     0.20400
F679        F  0.96877559  0.77257750  0.05173788    -0.12460
F680        F  0.89178722  0.77959862  0.05624377    -0.14820
F681        F  0.95779794  0.67919015  0.40826293    -0.14820
F682        F  0.88143943  0.68489226  0.41266965    -0.12460
C683        C  0.13312477  0.84118711  0.49214495     0.25550
C684        C  0.15014592  0.85487838  0.44552972    -0.22560
C685        C  0.13151690  0.84746767  0.39790425     0.20460
C686        C  0.09853105  0.82326574  0.39666379     0.25490
C687        C  0.08316894  0.80705574  0.44295058    -0.22500
C688        C  0.09963976  0.81780108  0.49085539     0.20400
F689        F  0.08572570  0.80145627  0.03606283    -0.12460
F690        F  0.14987091  0.84855010  0.03877032    -0.14820
F691        F  0.08377483  0.81208711  0.35002205    -0.14820
F692        F  0.14718470  0.86009372  0.35205757    -0.12460
C693        C  0.44477620  0.93460601  0.43392492     0.25550
C694        C  0.46177799  0.92336942  0.48131470    -0.22560
C695        C  0.43976313  0.90440253  0.02050240     0.20460
C696        C  0.40060636  0.89872400  0.01347039     0.25490
C697        C  0.38310905  0.91159569  0.46665657    -0.22500
C698        C  0.40594950  0.92843315  0.42635299     0.20400
F699        F  0.39080323  0.93923474  0.37946269    -0.12460
F700        F  0.46588510  0.95182962  0.39498688    -0.14820
F701        F  0.37980478  0.88208183  0.05305617    -0.14820
F702        F  0.45607026  0.89290741  0.06626319    -0.12460
C703        C  0.62654309  0.88604028  0.45389329     0.25550
C704        C  0.59870517  0.88012092  0.49259430    -0.22560
C705        C  0.60291007  0.84731006  0.52895403     0.20460
C706        C  0.63548892  0.82193338  0.52783931     0.25490
C707        C  0.66370050  0.82910667  0.49011086    -0.22500
C708        C  0.65865135  0.86070834  0.45265260     0.20400
F709        F  0.68540595  0.86757207  0.41535572    -0.12460
F710        F  0.62285290  0.91696147  0.41764242    -0.14820
F711        F  0.63929878  0.79020355  0.56286482    -0.14820
F712        F  0.57620324  0.84078840  0.56630272    -0.12460
C713        C  0.12238747  0.59261130  0.97676226     0.25550
C714        C  0.15658323  0.60834568  0.99752894    -0.22560
C715        C  0.16003689  0.65162684  0.00439705     0.20460
C716        C  0.12957983  0.67786059  0.99543276     0.25490
C717        C  0.09611016  0.66309538  0.47205860    -0.22500
C718        C  0.09254909  0.62004307  0.46305550     0.20400
F719        F  0.06054897  0.60464920  0.44097578    -0.12460
F720        F  0.11757444  0.55098514  0.97063630    -0.14820
F721        F  0.13313788  0.71832343  0.00986007    -0.14820
F722        F  0.19320557  0.66909091  0.02023100    -0.12460
C723        C  0.57546051  0.54508039  0.04791468     0.25550
C724        C  0.56623301  0.52806762  0.99957655    -0.22560
C725        C  0.58528700  0.54259253  0.45482991     0.20460
C726        C  0.61815772  0.56666266  0.45952500     0.25490
C727        C  0.63125596  0.57725861  0.00910566    -0.22500
C728        C  0.60808487  0.56941767  0.05281735     0.20400
F729        F  0.61943834  0.58124218  0.10097670    -0.12460
F730        F  0.55607791  0.53327167  0.09126501    -0.14820
F731        F  0.63968237  0.57461405  0.41666517    -0.14820
F732        F  0.57527753  0.52816985  0.40750010    -0.12460
C733        C  0.72429627  0.63658508  0.51045582     0.05090
C734        C  0.68731097  0.62476118  0.49635273    -0.11060
C735        C  0.67154699  0.58808354  0.51696129     0.02590
C736        C  0.69393766  0.56137235  0.54772836    -0.09590
C737        C  0.73069828  0.57262057  0.56220491     0.05080
C738        C  0.74552735  0.61100241  0.54482674    -0.09010
H739        H  0.67007691  0.64522279  0.47216578     0.10670
H740        H  0.68175528  0.53271850  0.56311237     0.08200
H741        H  0.77337436  0.62083723  0.55784885     0.08050
C742        C  0.23359856  0.02405130  0.50823619     0.05090
C743        C  0.25286239  0.53813171  0.55317539    -0.11060
C744        C  0.23959544  0.57362071  0.57912686     0.02590
C745        C  0.20587466  0.59219601  0.56317045    -0.09590
C746        C  0.18797255  0.58109701  0.51675303     0.05080
C747        C  0.20199550  0.54671886  0.48911038    -0.09010
H748        H  0.27805317  0.02208794  0.56717889     0.10670
H749        H  0.19419595  0.61706951  0.58663931     0.08200
H750        H  0.18820709  0.53728756  0.95349217     0.08050
C751        C  0.50203548  0.93329515  0.99030935     0.05090
C752        C  0.51331592  0.97533672  0.99303828    -0.11060
C753        C  0.55176786  0.98517097  0.49899462     0.02590
C754        C  0.57866374  0.95316574  0.00210432    -0.09590
C755        C  0.56811094  0.91143583  0.99750936     0.05080
C756        C  0.52949239  0.90130785  0.99271531    -0.09010
H757        H  0.49245592  0.00014623  0.48993318     0.10670
H758        H  0.60851274  0.96104611  0.00612128     0.08200
H759        H  0.52101007  0.86905720  0.98837972     0.08050
O760        O  0.24246944  0.97962267  0.93381109    -0.55860
C761        C  0.28428552  0.85351758  0.85430208     0.76770
O762        O  0.31971939  0.88690952  0.98886961    -0.57020
C763        C  0.24498852  0.98472419  0.98294344     0.76740
C764        C  0.18845797  0.87357525  0.94557675     0.79140
Cd765      Cd  0.26270167  0.90590926  0.93785804     1.37470
O766        O  0.27940885  0.89265073  0.84696479    -0.55850
O767        O  0.19842513  0.89853230  0.90931841    -0.54660
C768        C  0.34129427  0.90910935  0.95957398     0.79100
O769        O  0.21324942  0.86425834  0.98024081    -0.57040
O770        O  0.27564276  0.83847965  0.89872414    -0.55490
O771        O  0.25657105  0.95386674  0.01007738    -0.55480
O772        O  0.32547390  0.92982085  0.92308703    -0.54650
C773        C  0.00588941  0.72817397  0.97013474     0.05090
C774        C  0.02874365  0.69190717  0.97126293    -0.11060
C775        C  0.06707171  0.69437571  0.95597182     0.02590
C776        C  0.08048638  0.73182990  0.93449405    -0.09590
C777        C  0.06032614  0.76870598  0.94134088     0.05080
C778        C  0.02263229  0.76702158  0.95839508    -0.09010
H779        H  0.01720438  0.66282243  0.98610282     0.10670
H780        H  0.10969626  0.73368478  0.92101471     0.08200
H781        H  0.00650664  0.79563103  0.96229498     0.08050
O782        O  0.77298424  0.77715815  0.87259968    -0.55860
C783        C  0.73884816  0.67749578  0.99344232     0.76770
O784        O  0.82503304  0.76421050  0.01284832    -0.57020
C785        C  0.78656943  0.81324422  0.88151048     0.76740
C786        C  0.69736281  0.80248293  0.98586417     0.79140
Cd787      Cd  0.76465233  0.75861939  0.96417344     1.37470
O788        O  0.73548307  0.69056354  0.94661100    -0.55850
O789        O  0.70167340  0.78061298  0.94549185    -0.54660
C790        C  0.84294994  0.74135090  0.98052028     0.79100
O791        O  0.72416242  0.80263392  0.01940265    -0.57040
O792        O  0.75441974  0.70173935  0.02576453    -0.55490
O793        O  0.78733124  0.82522862  0.92841879    -0.55480
O794        O  0.82377936  0.72651738  0.94321112    -0.54650
C795        C  0.80999762  0.88245286  0.76458651     0.05090
C796        C  0.79041296  0.86772508  0.80919764    -0.11060
C797        C  0.80680059  0.83638562  0.84041569     0.02590
C798        C  0.84342195  0.82280622  0.82967700    -0.09590
C799        C  0.86086054  0.83206298  0.78191252     0.05080
C800        C  0.84399600  0.86260557  0.74934825    -0.09010
H801        H  0.76278565  0.88031355  0.81921462     0.10670
H802        H  0.85703905  0.80187125  0.85735917     0.08200
H803        H  0.85712950  0.87129553  0.71275173     0.08050
C804        C  0.31172284  0.76439244  0.76434646     0.05090
C805        C  0.28964235  0.78942766  0.79786175    -0.11060
C806        C  0.30409009  0.82764258  0.81569070     0.02590
C807        C  0.34123332  0.83899248  0.80277465    -0.09590
C808        C  0.36427537  0.81282298  0.77297665     0.05080
C809        C  0.34900898  0.77653651  0.75182169    -0.09010
H810        H  0.26145956  0.77946374  0.80955618     0.10670
H811        H  0.35313357  0.86739835  0.81852736     0.08200
H812        H  0.36681022  0.75662559  0.72820510     0.08050
C813        C  0.03238448  0.67779417  0.70260039     0.05090
C814        C  0.01400849  0.71597273  0.71278045    -0.11060
C815        C  0.97483941  0.71994462  0.70431403     0.02590
C816        C  0.95486981  0.68691224  0.68218784    -0.09590
C817        C  0.97162104  0.64776167  0.67734018     0.05080
C818        C  0.01068328  0.64323991  0.68675697    -0.09010
H819        H  0.02962627  0.74136974  0.73016881     0.10670
H820        H  0.92437529  0.68992215  0.67674255     0.08200
H821        H  0.02391219  0.61293902  0.68251524     0.08050
O822        O  0.27059015  0.63115809  0.61875708    -0.55860
C823        C  0.29772812  0.72389496  0.74562432     0.76770
O824        O  0.21194263  0.63302114  0.75424188    -0.57020
C825        C  0.25874774  0.59371464  0.62306078     0.76740
C826        C  0.34084108  0.59885765  0.74135957     0.79140
Cd827      Cd  0.27480338  0.64296721  0.71206061     1.37460
O828        O  0.30433757  0.71163552  0.69946901    -0.55850
O829        O  0.34045878  0.62524404  0.70430446    -0.54660
C830        C  0.19523317  0.65670526  0.72102067     0.79100
O831        O  0.31059757  0.59435376  0.76832645    -0.57040
O832        O  0.27984389  0.69906807  0.77561306    -0.55490
O833        O  0.25819328  0.57751609  0.66828842    -0.55480
O834        O  0.21595755  0.67380840  0.68651955    -0.54650
C835        C  0.53566366  0.96621576  0.74799142     0.05090
C836        C  0.52390464  0.92447563  0.75288146    -0.11060
C837        C  0.48558844  0.91553143  0.76164070     0.02590
C838        C  0.45935749  0.94793021  0.76599021    -0.09590
C839        C  0.46993560  0.48932667  0.75730660     0.05080
C840        C  0.50857373  0.49872658  0.74950368    -0.09010
H841        H  0.54426839  0.89930405  0.74906035     0.10670
H842        H  0.42965203  0.94043533  0.77266722     0.08200
H843        H  0.51734175  0.53069513  0.74266155     0.08050
O844        O  0.75529346  0.00786948  0.59628069    -0.55860
C845        C  0.79648172  0.92007875  0.73636231     0.76770
O846        O  0.82201413  0.54290110  0.72455473    -0.57020
C847        C  0.74976250  0.54696468  0.60221942     0.76740
C848        C  0.69580262  0.99134367  0.71177504     0.79140
Cd849      Cd  0.77405720  0.99665648  0.68701486     1.37460
O850        O  0.79831162  0.92394400  0.68687246    -0.55850
O851        O  0.71089806  0.97185225  0.67421644    -0.54660
C852        C  0.84531640  0.53690132  0.68716039     0.79100
O853        O  0.71774309  0.51325818  0.74021961    -0.57040
O854        O  0.78379025  0.95097699  0.76154948    -0.55490
O855        O  0.75795595  0.56254810  0.64608683    -0.55480
O856        O  0.83604104  0.51095731  0.65239829    -0.54650
C857        C  0.60050080  0.98333748  0.78024725     0.25550
C858        C  0.57609511  0.97531921  0.73844895    -0.22560
C859        C  0.59089959  0.97319296  0.68794734     0.20460
C860        C  0.62967469  0.97965877  0.67919093     0.25490
C861        C  0.65438994  0.98798860  0.72109804    -0.22500
C862        C  0.63931445  0.99028250  0.77171800     0.20400
F863        F  0.66236072  0.99701632  0.81315996    -0.12460
F864        F  0.58692720  0.98211581  0.82954290    -0.14820
F865        F  0.64303766  0.97753097  0.62967144    -0.14820
F866        F  0.56794744  0.96335468  0.64743664    -0.12460
C867        C  0.40507639  0.58263716  0.77911930     0.25550
C868        C  0.37394396  0.57162708  0.74792720    -0.22560
C869        C  0.37609623  0.53621958  0.71678916     0.20460
C870        C  0.40838452  0.51115785  0.71783160     0.25490
C871        C  0.43903971  0.52049558  0.75105415    -0.22500
C872        C  0.43749318  0.55693445  0.78103168     0.20400
F873        F  0.46670891  0.56691941  0.81302528    -0.12640
F874        F  0.40401326  0.61808159  0.80747240    -0.14820
F875        F  0.40963771  0.97738397  0.68638657    -0.14820
F876        F  0.34686289  0.52617516  0.68472861    -0.12460
C877        C  0.09871702  0.70117119  0.68482322     0.25550
C878        C  0.07390839  0.67364193  0.71054448    -0.22560
C879        C  0.08909043  0.64179348  0.74246223     0.20460
C880        C  0.12854299  0.63697645  0.74756306     0.25490
C881        C  0.15349938  0.66382622  0.72054822    -0.22500
C882        C  0.13800747  0.69636095  0.68965260     0.20400
F883        F  0.16081642  0.72344474  0.66332818    -0.12460
F884        F  0.08487859  0.73190635  0.65327901    -0.14820
F885        F  0.14218806  0.60521158  0.77754112    -0.14820
F886        F  0.06568280  0.61534981  0.76877045    -0.12460
C887        C  0.88735903  0.58437985  0.63664664     0.25550
C888        C  0.88088662  0.56060320  0.68205968    -0.22560
C889        C  0.90786545  0.56087226  0.72223612     0.20460
C890        C  0.94027765  0.58600016  0.71792021     0.25490
C891        C  0.94562960  0.61178189  0.67378613    -0.22500
C892        C  0.91927626  0.61010060  0.63274488     0.20400
F893        F  0.92306567  0.63573995  0.59061488    -0.12460
F894        F  0.86122877  0.58508398  0.59771268    -0.14820
F895        F  0.96470288  0.58792603  0.75874770    -0.14820
F896        F  0.90233921  0.53760854  0.76605589    -0.12460
C897        C  0.45092662  0.86152779  0.71475535     0.25550
C898        C  0.46989007  0.87323331  0.76048244    -0.22560
C899        C  0.45978790  0.85446973  0.80799275     0.20460
C900        C  0.42716522  0.82986163  0.81104376     0.25490
C901        C  0.40463620  0.82383619  0.76648652    -0.22500
C902        C  0.41814698  0.83708090  0.71772183     0.20400
F903        F  0.39686744  0.83150308  0.67425444    -0.12460
F904        F  0.46027400  0.87981724  0.66867484    -0.14820
F905        F  0.41503020  0.81614250  0.85841304    -0.14820
F906        F  0.47797863  0.86521867  0.85246491    -0.12460
C907        C  0.89439224  0.76317387  0.78005679     0.25550
C908        C  0.89370921  0.80577121  0.76529900    -0.22560
C909        C  0.92386713  0.82138746  0.73429233     0.20460
C910        C  0.95228536  0.79427587  0.71588806     0.25490
C911        C  0.95180430  0.75197143  0.73052161    -0.22500
C912        C  0.92416532  0.73768688  0.76565290     0.20400
F913        F  0.92412390  0.69734941  0.78254264    -0.12460
F914        F  0.86484851  0.74463382  0.80525399    -0.14820
F915        F  0.97913906  0.80884322  0.68241784    -0.14820
F916        F  0.92562770  0.86241832  0.72109923    -0.12460
C917        C  0.90748249  0.75420965  0.02014155     0.25550
C918        C  0.88450630  0.73319759  0.98398406    -0.22560
C919        C  0.90216374  0.70645901  0.94783043     0.20460
C920        C  0.94169183  0.70292833  0.94584411     0.25490
C921        C  0.96452117  0.72596259  0.97970145    -0.22500
C922        C  0.94717357  0.75074096  0.01780490     0.20400
F923        F  0.96882451  0.77263701  0.55168575    -0.12460
F924        F  0.89183769  0.77966202  0.55621040    -0.14820
F925        F  0.95777491  0.67919275  0.90824892    -0.14820
F926        F  0.88141578  0.68489430  0.91263100    -0.12460
C927        C  0.13308891  0.84117029  0.99217677     0.25550
C928        C  0.15010702  0.85485937  0.94555843    -0.22560
C929        C  0.13147462  0.84744679  0.89793594     0.20460
C930        C  0.09848879  0.82324451  0.89670139     0.25490
C931        C  0.08313020  0.80703597  0.94299121    -0.22500
C932        C  0.09960394  0.81778391  0.99089311     0.20400
F933        F  0.08575837  0.80147170  0.53602231    -0.12460
F934        F  0.14990376  0.84856462  0.53874115    -0.14820
F935        F  0.08372967  0.81206340  0.85006231    -0.14820
F936        F  0.14713922  0.86007105  0.85208647    -0.12460
C937        C  0.44473015  0.93464086  0.93395164     0.25550
C938        C  0.46174476  0.92333022  0.98130663    -0.22560
C939        C  0.43978459  0.90451442  0.52055144     0.20460
C940        C  0.40062960  0.89882566  0.51351516     0.25490
C941        C  0.38307259  0.91157102  0.96665257    -0.22500
C942        C  0.40590282  0.92847465  0.92638028     0.20400
F943        F  0.39074666  0.93934890  0.87952123    -0.12460
F944        F  0.46582800  0.95192635  0.89504444    -0.14820
F945        F  0.37981567  0.88225462  0.55313464    -0.14820
F946        F  0.45607857  0.89310287  0.56635248    -0.12460
C947        C  0.62651102  0.88601112  0.95392109     0.25550
C948        C  0.59867194  0.88008261  0.99261851    -0.22560
C949        C  0.60287627  0.84726429  0.02896769     0.20460
C950        C  0.63545543  0.82188828  0.02784559     0.25490
C951        C  0.66366785  0.82907053  0.99012076    -0.22500
C952        C  0.65861973  0.86068065  0.95267375     0.20400
F953        F  0.68537524  0.86755309  0.91538049    -0.12460
F954        F  0.62282129  0.91693956  0.91767981    -0.14820
F955        F  0.63926463  0.79015042  0.06285986    -0.14820
F956        F  0.57616825  0.84073399  0.06631255    -0.12460
C957        C  0.12241792  0.59263131  0.47671399     0.25550
C958        C  0.15661414  0.60836505  0.49747975    -0.22560
C959        C  0.16007003  0.65164640  0.50434334     0.20460
C960        C  0.12961415  0.67788139  0.49537708     0.25490
C961        C  0.09607722  0.66307422  0.97211107    -0.22500
C962        C  0.09251781  0.62002222  0.96310511     0.20400
F963        F  0.06051885  0.60462788  0.94102277    -0.12460
F964        F  0.11760341  0.55100500  0.47059147    -0.14820
F965        F  0.13317410  0.71834467  0.50980162    -0.14820
F966        F  0.19323923  0.66910891  0.52017802    -0.12460
C967        C  0.57547539  0.54512455  0.54790284     0.25550
C968        C  0.56626565  0.52810945  0.49955974    -0.22560
C969        C  0.58524121  0.54254929  0.95483518     0.20460
C970        C  0.61811700  0.56661447  0.95951168     0.25490
C971        C  0.63127964  0.57730911  0.50912625    -0.22500
C972        C  0.60809584  0.56946577  0.55282454     0.20400
F973        F  0.61943342  0.58129170  0.60099030    -0.12460
F974        F  0.55607914  0.53331552  0.59124133    -0.14820
F975        F  0.63962859  0.57456477  0.91663930    -0.14820
F976        F  0.57521321  0.52813018  0.90751014    -0.12460
loop_ 
_geom_bond_atom_site_label_1 
_geom_bond_atom_site_label_2 
_geom_bond_distance 
_geom_bond_site_symmetry_2 
_ccdc_geom_bond_type 
C1            C2   1.405   1_554  A
C1            C6   1.411       .  A
C1          C295   1.472   1_554  S
C2            C3   1.400   1_556  A
C2            H7   1.083       .  S
C3            C4   1.401       .  A
C3          C239   1.473       .  S
C4            C5   1.395       .  A
C4            H8   1.085       .  S
C5            C6   1.406       .  A
C5          C115   1.471       .  S
C6            H9   1.084       .  S
C10         C499   1.417       .  A
C10         C503   1.412   1_554  A
C10         C275   1.480   1_554  S
C11          C12   1.404       .  A
C11         C498   1.417       .  A
C11         H504   1.083       .  S
C12          C13   1.386       .  A
C12          C93   1.470       .  S
C13          C14   1.398       .  A
C13          H17   1.085       .  S
C14          C15   1.406   1_554  A
C14         C226   1.488   1_554  S
C15         C498   1.412   1_556  A
C15         H262   1.082       .  S
H16         C499   1.083       .  S
H18         C259   1.082       .  S
C19          C20   1.409       .  A
C19          C24   1.409       .  A
C19         C206   1.472       .  S
C20         C265   1.397       .  A
C20         H269   1.083       .  S
C21         C264   1.397       .  A
C21         C266   1.396   1_556  A
C21         C724   1.470       .  S
C22          C23   1.396       .  A
C22         C265   1.396       .  A
C22          H26   1.086       .  S
C23          C24   1.403       .  A
C23         C216   1.477       .  S
C24          H27   1.084       .  S
H25         C264   1.083       .  S
O28          C31   1.277       .  A
O28         Cd33   2.469       .  S
C29          C74   1.474       .  S
C29          O38   1.271       .  A
C29          O34   1.278       .  A
O30          C36   1.280       .  A
O30         Cd33   2.468       .  S
C31         C254   1.480       .  S
C31          O39   1.271       .  A
C32         C196   1.478       .  S
C32          O37   1.279       .  A
C32          O35   1.271       .  A
Cd33         O40   2.368       .  S
Cd33         O39   2.432       .  S
Cd33         O38   2.437       .  S
Cd33         O34   2.448       .  S
Cd33         O37   2.444       .  S
Cd33         O35   2.390       .  S
C36         C209   1.483       .  S
C36          O40   1.271       .  A
C41          C42   1.413       .  A
C41          C46   1.409       .  A
C41         C189   1.477   1_455  S
C42          C43   1.406       .  A
C42          H47   1.083       .  S
C43          C44   1.399       .  A
C43         C229   1.486       .  S
C44          C45   1.391       .  A
C44          H48   1.086       .  S
C45          C46   1.397       .  A
C45         C199   1.470       .  S
C46          H49   1.083       .  S
O50          C53   1.276       .  A
O50         Cd55   2.437       .  S
C51         C245   1.472       .  S
C51          O60   1.269       .  A
C51          O56   1.275       .  A
O52          C58   1.279       .  A
O52         Cd55   2.473       .  S
C53          C65   1.468       .  S
C53          O61   1.269       .  A
C54         C219   1.464       .  S
C54          O59   1.277       .  A
C54          O57   1.267       .  A
Cd55         O62   2.383       .  S
Cd55         O61   2.451       .  S
Cd55         O60   2.429       .  S
Cd55         O56   2.460       .  S
Cd55         O59   2.463       .  S
Cd55         O57   2.371       .  S
C58         C186   1.487       .  S
C58          O62   1.269       .  A
C63          C64   1.414       .  A
C63          C68   1.411       .  A
C63         C113   1.479       .  S
C64          C65   1.402       .  A
C64          H69   1.084       .  S
C65          C66   1.388       .  A
C66          C67   1.400       .  A
C66          H70   1.084       .  S
C67          C68   1.411       .  A
C67         C176   1.494       .  S
C68          H71   1.081       .  S
C72          C73   1.415       .  A
C72          C77   1.405       .  A
C72          C91   1.476       .  S
C73          C74   1.409       .  A
C73          H78   1.083       .  S
C74          C75   1.396       .  A
C75          C76   1.399       .  A
C75          H79   1.086       .  S
C76          C77   1.398       .  A
C76         C169   1.473       .  S
C77          H80   1.084       .  S
C81          C82   1.411       .  A
C81          C86   1.411       .  A
C81         C146   1.480       .  S
C82          C83   1.400   1_455  A
C82          H87   1.084       .  S
C83          C84   1.398       .  A
C83         C179   1.475       .  S
C84          C85   1.393       .  A
C84          H88   1.086       .  S
C85          C86   1.402   1_655  A
C85         C159   1.477       .  S
C86          H89   1.083       .  S
O90          C93   1.276       .  A
O90         Cd95   2.435       .  S
C91         O100   1.269       .  A
C91          O96   1.274       .  A
O92          C98   1.279       .  A
O92         Cd95   2.481       .  S
C93         O101   1.267       .  A
C94         C136   1.463       .  S
C94          O99   1.277       .  A
C94          O97   1.267       .  A
Cd95        O102   2.382       .  S
Cd95        O101   2.464       .  S
Cd95        O100   2.449       .  S
Cd95         O96   2.455       .  S
Cd95         O99   2.459       .  S
Cd95         O97   2.386       .  S
C98         C149   1.485       .  S
C98         O102   1.268       .  A
C103        C104   1.406       .  A
C103        C596   1.412       .  A
C103        C126   1.472       .  S
C104        C105   1.396       .  A
C104        H109   1.084       .  S
C105        C106   1.394       .  A
C105        C166   1.466       .  S
C106        C595   1.395       .  A
C106        H110   1.086       .  S
C107        C108   1.406       .  A
C107        C594   1.395       .  A
C107        C139   1.483   1_565  S
C108        C591   1.412       .  A
C108        H111   1.084   1_565  S
O112        C603   1.279       .  A
O112       Cd117   2.445       .  S
C113        O122   1.270       .  A
C113        O118   1.277       .  A
O114        C120   1.278       .  A
O114       Cd605   2.453   1_545  S
C115        O123   1.271       .  A
C115        O600   1.279       .  A
C116        C129   1.480       .  S
C116        O119   1.271       .  A
C116        O609   1.280       .  A
Cd117       O122   2.422       .  S
Cd117       O118   2.482       .  S
Cd117       O119   2.385       .  S
Cd117       O602   2.453       .  S
Cd117       O612   2.397       .  S
Cd117       O611   2.416       .  S
Cd117       O609   2.467       .  S
C120        C156   1.470       .  S
C120        O124   1.270       .  A
O121        C604   1.280   1_545  A
O121       Cd605   2.467   1_545  S
O123       Cd605   2.416   1_545  S
O124       Cd605   2.397   1_545  S
C125        C126   1.401       .  A
C125        C130   1.400       .  A
C125        F132   1.353       .  S
C126        C127   1.400       .  A
C127        C128   1.398       .  A
C127        F134   1.357       .  S
C128        C129   1.412       .  A
C128        F133   1.358       .  S
C129        C130   1.406       .  A
C130        F131   1.358       .  S
C135        C136   1.405       .  A
C135        C140   1.406       .  A
C135        F142   1.357       .  S
C136        C137   1.398       .  A
C137        C138   1.390       .  A
C137        F144   1.359       .  S
C138        C139   1.410       .  A
C138        F631   1.359   1_545  S
C139        C140   1.408       .  A
C140        F141   1.357       .  S
F143        C626   1.359       .  S
C145        C146   1.403       .  A
C145        C150   1.396       .  A
C145        F152   1.359       .  S
C146        C147   1.407       .  A
C147        C148   1.402       .  A
C147        F154   1.358       .  S
C148        C149   1.408       .  A
C148        F153   1.357       .  S
C149        C150   1.413       .  A
C150        F151   1.358       .  S
C155        C156   1.405       .  A
C155        C160   1.397       .  A
C155        F162   1.358       .  S
C156        C157   1.402       .  A
C157        C158   1.401       .  A
C157        F164   1.358       .  S
C158        C159   1.408       .  A
C158        F163   1.358       .  S
C159        C160   1.405       .  A
C160        F161   1.358       .  S
C165        C166   1.406       .  A
C165        C170   1.397       .  A
C165        F172   1.356       .  S
C166        C167   1.401       .  A
C167        C168   1.396       .  A
C167        F174   1.358       .  S
C168        C169   1.407       .  A
C168        F173   1.358       .  S
C169        C170   1.401       .  A
C170        F171   1.358       .  S
C175        C176   1.414       .  A
C175        C180   1.380       .  A
C175        F182   1.359       .  S
C176        C177   1.415       .  A
C177        C178   1.409       .  A
C177        F184   1.357       .  S
C178        C179   1.404       .  A
C178        F183   1.357       .  S
C179        C180   1.400       .  A
C180        F181   1.360       .  S
C185        C186   1.409       .  A
C185        C190   1.402       .  A
C185        F436   1.357       .  S
C186        C187   1.414       .  A
C187        C188   1.396       .  A
C187        F194   1.358       .  S
C188        C189   1.401       .  A
C188        F193   1.359       .  S
C189        C190   1.406       .  A
C190        F435   1.358       .  S
F191        C434   1.358       .  S
F192        C429   1.357       .  S
C195        C196   1.405       .  A
C195        C200   1.398       .  A
C195        F446   1.358       .  S
C196        C197   1.410       .  A
C197        C198   1.398       .  A
C197        F204   1.358       .  S
C198        C199   1.401       .  A
C198        F203   1.358       .  S
C199        C200   1.407       .  A
C200        F445   1.358       .  S
F201        C444   1.358   1_554  S
F202        C439   1.358   1_554  S
C205        C206   1.400       .  A
C205        C210   1.394       .  A
C205        F212   1.358       .  S
C206        C451   1.403       .  A
C207        C208   1.402       .  A
C207        C450   1.403   1_554  A
C207        F214   1.355       .  S
C208        C453   1.409   1_554  A
C208        F213   1.357       .  S
C209        C210   1.413       .  A
C209        C452   1.409       .  A
C210        F211   1.358       .  S
C215        C216   1.407       .  A
C215        C220   1.391       .  A
C215        F222   1.359       .  S
C216        C217   1.407       .  A
C217        C218   1.405       .  A
C217        F224   1.357       .  S
C218        C219   1.404       .  A
C218        F223   1.357       .  S
C219        C220   1.401       .  A
C220        F221   1.359       .  S
C225        C226   1.412       .  A
C225        C474   1.411       .  A
C225        F232   1.357       .  S
C226        C227   1.407   1_556  A
C227        C228   1.379   1_554  A
C227        F234   1.360       .  S
C228        C473   1.408       .  A
C228        F233   1.360   1_556  S
C229        C230   1.409       .  A
C229        C472   1.408       .  A
C230        C469   1.411       .  A
C230        F231   1.357       .  S
C235        C236   1.400   1_554  A
C235        C240   1.396       .  A
C235        F242   1.356       .  S
C236        C481   1.404       .  A
C236        C509   1.470   1_545  S
C237        C238   1.398       .  A
C237        C480   1.404       .  A
C237        F244   1.352       .  S
C238        C483   1.401       .  A
C238        F243   1.358       .  S
C239        C240   1.408       .  A
C239        C482   1.401   1_554  A
C240        F241   1.358       .  S
C245        C246   1.405       .  A
C245        C250   1.411       .  A
C246        C247   1.400       .  A
C246        H251   1.083       .  S
C247        C248   1.401       .  A
C247        C483   1.473       .  S
C248        C249   1.395       .  A
C248        H252   1.085       .  S
C249        C250   1.406       .  A
C249        C359   1.471       .  S
C250        H253   1.084       .  S
C254        C743   1.417       .  A
C254        C747   1.412       .  A
C255        C742   1.417       .  A
C255        C256   1.404       .  A
C255        H748   1.083       .  S
C256        C257   1.386       .  A
C256        C337   1.470       .  S
C257        C258   1.398       .  A
C257        H261   1.085       .  S
C258        C259   1.406       .  A
C258        C470   1.488       .  S
C259        C742   1.412       .  A
H260        C743   1.083       .  S
C263        C264   1.409       .  A
C263        C268   1.409       .  A
C263        C450   1.472       .  S
C265        C968   1.470       .  S
C266        C267   1.396   1_554  A
C266        H270   1.086       .  S
C267        C268   1.403       .  A
C267        C460   1.477       .  S
C268        H271   1.084       .  S
O272        C275   1.277       .  A
O272       Cd277   2.469       .  S
C273        C318   1.474       .  S
C273        O282   1.271       .  A
C273        O278   1.278       .  A
O274        C280   1.280       .  A
O274       Cd277   2.468       .  S
C275        O283   1.271   1_556  A
C276        C440   1.478       .  S
C276        O281   1.279       .  A
C276        O279   1.271       .  A
Cd277       O284   2.368       .  S
Cd277       O283   2.432   1_556  S
Cd277       O282   2.437       .  S
Cd277       O278   2.448       .  S
Cd277       O281   2.444       .  S
Cd277       O279   2.390       .  S
C280        C453   1.483       .  S
C280        O284   1.271       .  A
C285        C286   1.413       .  A
C285        C290   1.409       .  A
C285        C433   1.477   1_455  S
C286        C287   1.406       .  A
C286        H291   1.083       .  S
C287        C288   1.399       .  A
C287        C473   1.486       .  S
C288        C289   1.391       .  A
C288        H292   1.086       .  S
C289        C290   1.397       .  A
C289        C443   1.470       .  S
C290        H293   1.083       .  S
O294        C297   1.276       .  A
O294       Cd299   2.437       .  S
C295        O304   1.269   1_556  A
C295        O300   1.275       .  A
O296        C302   1.279   1_554  A
O296       Cd299   2.473   1_554  S
C297        C309   1.468       .  S
C297        O305   1.269       .  A
C298        C463   1.464       .  S
C298        O303   1.277   1_556  A
C298        O301   1.267       .  A
Cd299       O306   2.383       .  S
Cd299       O305   2.451       .  S
Cd299       O304   2.429   1_556  S
Cd299       O300   2.460       .  S
Cd299       O303   2.463   1_556  S
Cd299       O301   2.371       .  S
C302        C430   1.487       .  S
C302        O306   1.269       .  A
C307        C308   1.414       .  A
C307        C312   1.411       .  A
C307        C357   1.479       .  S
C308        C309   1.402       .  A
C308        H313   1.084       .  S
C309        C310   1.388       .  A
C310        C311   1.400       .  A
C310        H314   1.084       .  S
C311        C312   1.411       .  A
C311        C420   1.494       .  S
C312        H315   1.081       .  S
C316        C317   1.415       .  A
C316        C321   1.405       .  A
C316        C335   1.476       .  S
C317        C318   1.409       .  A
C317        H322   1.083       .  S
C318        C319   1.396       .  A
C319        C320   1.399       .  A
C319        H323   1.086       .  S
C320        C321   1.398       .  A
C320        C413   1.473       .  S
C321        H324   1.084       .  S
C325        C326   1.411       .  A
C325        C330   1.411       .  A
C325        C390   1.480       .  S
C326        C327   1.400   1_455  A
C326        H331   1.084       .  S
C327        C328   1.398       .  A
C327        C423   1.475       .  S
C328        C329   1.393       .  A
C328        H332   1.086       .  S
C329        C330   1.402   1_655  A
C329        C403   1.477       .  S
C330        H333   1.083       .  S
O334        C337   1.276       .  A
O334       Cd339   2.435       .  S
C335        O344   1.269       .  A
C335        O340   1.274       .  A
O336        C342   1.279       .  A
O336       Cd339   2.481       .  S
C337        O345   1.267       .  A
C338        C380   1.463       .  S
C338        O343   1.277       .  A
C338        O341   1.267       .  A
Cd339       O346   2.382       .  S
Cd339       O345   2.464       .  S
Cd339       O344   2.449       .  S
Cd339       O340   2.455       .  S
Cd339       O343   2.459       .  S
Cd339       O341   2.386       .  S
C342        C393   1.485       .  S
C342        O346   1.268       .  A
C347        C348   1.406       .  A
C347        C840   1.412       .  A
C347        C370   1.472       .  S
C348        C349   1.396       .  A
C348        H353   1.084       .  S
C349        C350   1.394       .  A
C349        C410   1.466       .  S
C350        C839   1.395       .  A
C350        H354   1.086       .  S
C351        C838   1.395       .  A
C351        C352   1.406       .  A
C351        C383   1.483   1_565  S
C352        C835   1.412       .  A
C352        H355   1.084   1_565  S
O356        C847   1.279       .  A
O356       Cd361   2.445       .  S
C357        O366   1.270       .  A
C357        O362   1.277       .  A
O358        C364   1.278       .  A
O358       Cd849   2.453   1_545  S
C359        O844   1.279       .  A
C359        O367   1.271       .  A
C360        C373   1.480       .  S
C360        O853   1.280       .  A
C360        O363   1.271       .  A
Cd361       O846   2.453       .  S
Cd361       O856   2.397       .  S
Cd361       O855   2.416       .  S
Cd361       O366   2.422       .  S
Cd361       O362   2.482       .  S
Cd361       O853   2.467       .  S
Cd361       O363   2.385       .  S
C364        C400   1.470       .  S
C364        O368   1.270       .  A
O365        C848   1.280   1_545  A
O365       Cd849   2.467   1_545  S
O367       Cd849   2.416   1_545  S
O368       Cd849   2.397   1_545  S
C369        C370   1.401       .  A
C369        C374   1.400       .  A
C369        F376   1.353       .  S
C370        C371   1.400       .  A
C371        C372   1.398       .  A
C371        F378   1.357       .  S
C372        C373   1.412       .  A
C372        F377   1.358       .  S
C373        C374   1.406       .  A
C374        F375   1.358       .  S
C379        C380   1.405       .  A
C379        C384   1.406       .  A
C379        F386   1.357       .  S
C380        C381   1.398       .  A
C381        C382   1.390       .  A
C381        F388   1.359       .  S
C382        C383   1.410       .  A
C382        F875   1.359   1_545  S
C383        C384   1.408       .  A
C384        F385   1.357       .  S
F387        C870   1.359       .  S
C389        C390   1.403       .  A
C389        C394   1.396       .  A
C389        F396   1.359       .  S
C390        C391   1.407       .  A
C391        C392   1.402       .  A
C391        F398   1.358       .  S
C392        C393   1.408       .  A
C392        F397   1.357       .  S
C393        C394   1.413       .  A
C394        F395   1.358       .  S
C399        C400   1.405       .  A
C399        C404   1.397       .  A
C399        F406   1.358       .  S
C400        C401   1.402       .  A
C401        C402   1.401       .  A
C401        F408   1.358       .  S
C402        C403   1.408       .  A
C402        F407   1.358       .  S
C403        C404   1.405       .  A
C404        F405   1.358       .  S
C409        C410   1.406       .  A
C409        C414   1.397       .  A
C409        F416   1.356       .  S
C410        C411   1.401       .  A
C411        C412   1.396       .  A
C411        F418   1.358       .  S
C412        C413   1.407       .  A
C412        F417   1.358       .  S
C413        C414   1.401       .  A
C414        F415   1.358       .  S
C419        C420   1.414       .  A
C419        C424   1.380       .  A
C419        F426   1.359       .  S
C420        C421   1.415       .  A
C421        C422   1.409       .  A
C421        F428   1.357       .  S
C422        C423   1.404       .  A
C422        F427   1.357       .  S
C423        C424   1.400       .  A
C424        F425   1.360       .  S
C429        C430   1.409   1_554  A
C429        C434   1.402       .  A
C430        C431   1.414       .  A
C431        C432   1.396       .  A
C431        F438   1.358       .  S
C432        C433   1.401       .  A
C432        F437   1.359       .  S
C433        C434   1.406   1_556  A
C439        C440   1.405       .  A
C439        C444   1.398       .  A
C440        C441   1.410       .  A
C441        C442   1.398       .  A
C441        F448   1.358       .  S
C442        C443   1.401       .  A
C442        F447   1.358       .  S
C443        C444   1.407       .  A
C449        C450   1.400       .  A
C449        C454   1.394       .  A
C449        F456   1.358       .  S
C451        C452   1.402       .  A
C451        F458   1.355       .  S
C452        F457   1.357       .  S
C453        C454   1.413       .  A
C454        F455   1.358       .  S
C459        C460   1.407       .  A
C459        C464   1.391       .  A
C459        F466   1.359       .  S
C460        C461   1.407   1_556  A
C461        C462   1.405       .  A
C461        F468   1.357       .  S
C462        C463   1.404   1_554  A
C462        F467   1.357       .  S
C463        C464   1.401       .  A
C464        F465   1.359       .  S
C469        C470   1.412       .  A
C469        F476   1.357       .  S
C470        C471   1.407       .  A
C471        C472   1.379       .  A
C471        F478   1.360       .  S
C472        F477   1.360       .  S
C473        C474   1.409       .  A
C474        F475   1.357       .  S
C479        C480   1.400       .  A
C479        C484   1.396       .  A
C479        F486   1.356       .  S
C480        C753   1.470   1_545  S
C481        C482   1.398       .  A
C481        F488   1.352       .  S
C482        F487   1.358       .  S
C483        C484   1.408       .  A
C484        F485   1.358       .  S
C489        C490   1.405   1_554  A
C489        C494   1.411       .  A
C489        C783   1.472   1_554  S
C490        C491   1.400   1_556  A
C490        H495   1.083       .  S
C491        C492   1.401       .  A
C491        C727   1.473       .  S
C492        C493   1.395       .  A
C492        H496   1.085       .  S
C493        C494   1.406       .  A
C493        C603   1.471       .  S
C494        H497   1.084       .  S
C498        C763   1.480   1_544  S
C499        C500   1.404       .  A
C500        C501   1.386       .  A
C500        C581   1.470       .  S
C501        C502   1.398       .  A
C501        H505   1.085       .  S
C502        C503   1.406   1_554  A
C502        C714   1.488   1_554  S
C503        H750   1.082       .  S
H506        C747   1.082       .  S
C507        C508   1.409       .  A
C507        C512   1.409       .  A
C507        C694   1.472       .  S
C508        C753   1.397       .  A
C508        H757   1.083   1_565  S
C509        C752   1.397       .  A
C509        C754   1.396   1_556  A
C510        C753   1.396       .  A
C510        C511   1.396       .  A
C510        H514   1.086       .  S
C511        C512   1.403       .  A
C511        C704   1.477       .  S
C512        H515   1.084       .  S
H513        C752   1.083   1_545  S
O516        C519   1.277       .  A
O516       Cd521   2.469       .  S
C517        C562   1.474       .  S
C517        O526   1.271       .  A
C517        O522   1.278       .  A
O518        C524   1.280       .  A
O518       Cd521   2.468       .  S
C519        C742   1.480   1_565  S
C519        O527   1.271       .  A
C520        C684   1.478       .  S
C520        O525   1.279       .  A
C520        O523   1.271       .  A
Cd521       O528   2.368       .  S
Cd521       O527   2.432       .  S
Cd521       O526   2.437       .  S
Cd521       O522   2.448       .  S
Cd521       O525   2.444       .  S
Cd521       O523   2.390       .  S
C524        C697   1.483       .  S
C524        O528   1.271       .  A
C529        C530   1.413       .  A
C529        C534   1.409       .  A
C529        C677   1.477   1_455  S
C530        C531   1.406       .  A
C530        H535   1.083       .  S
C531        C532   1.399       .  A
C531        C717   1.486       .  S
C532        C533   1.391       .  A
C532        H536   1.086       .  S
C533        C534   1.397       .  A
C533        C687   1.470       .  S
C534        H537   1.083       .  S
O538        C541   1.276       .  A
O538       Cd543   2.437       .  S
C539        C733   1.472       .  S
C539        O548   1.269       .  A
C539        O544   1.275       .  A
O540        C546   1.279       .  A
O540       Cd543   2.473       .  S
C541        C553   1.468       .  S
C541        O549   1.269       .  A
C542        C707   1.464       .  S
C542        O547   1.277       .  A
C542        O545   1.267       .  A
Cd543       O550   2.383       .  S
Cd543       O549   2.451       .  S
Cd543       O548   2.429       .  S
Cd543       O544   2.460       .  S
Cd543       O547   2.463       .  S
Cd543       O545   2.371       .  S
C546        C674   1.487       .  S
C546        O550   1.269       .  A
C551        C552   1.414       .  A
C551        C556   1.411       .  A
C551        C601   1.479       .  S
C552        C553   1.402       .  A
C552        H557   1.084       .  S
C553        C554   1.388       .  A
C554        C555   1.400       .  A
C554        H558   1.084       .  S
C555        C556   1.411       .  A
C555        C664   1.494       .  S
C556        H559   1.081       .  S
C560        C561   1.415       .  A
C560        C565   1.405       .  A
C560        C579   1.476       .  S
C561        C562   1.409       .  A
C561        H566   1.083       .  S
C562        C563   1.396       .  A
C563        C564   1.399       .  A
C563        H567   1.086       .  S
C564        C565   1.398       .  A
C564        C657   1.473       .  S
C565        H568   1.084       .  S
C569        C570   1.411       .  A
C569        C574   1.411       .  A
C569        C634   1.480       .  S
C570        C571   1.400   1_455  A
C570        H575   1.084       .  S
C571        C572   1.398       .  A
C571        C667   1.475       .  S
C572        C573   1.393       .  A
C572        H576   1.086       .  S
C573        C574   1.402   1_655  A
C573        C647   1.477       .  S
C574        H577   1.083       .  S
O578        C581   1.276       .  A
O578       Cd583   2.435       .  S
C579        O588   1.269       .  A
C579        O584   1.274       .  A
O580        C586   1.279       .  A
O580       Cd583   2.481       .  S
C581        O589   1.267       .  A
C582        C624   1.463       .  S
C582        O587   1.277       .  A
C582        O585   1.267       .  A
Cd583       O590   2.382       .  S
Cd583       O589   2.464       .  S
Cd583       O588   2.449       .  S
Cd583       O584   2.455       .  S
Cd583       O587   2.459       .  S
Cd583       O585   2.386       .  S
C586        C637   1.485       .  S
C586        O590   1.268       .  A
C591        C592   1.406       .  A
C591        C614   1.472       .  S
C592        C593   1.396       .  A
C592        H597   1.084       .  S
C593        C594   1.394       .  A
C593        C654   1.466       .  S
C594        H598   1.086       .  S
C595        C596   1.406       .  A
C595        C627   1.483       .  S
C596        H599   1.084       .  S
O600       Cd605   2.445   1_545  S
C601        O610   1.270       .  A
C601        O606   1.277       .  A
O602        C608   1.278       .  A
C603        O611   1.271       .  A
C604        C617   1.480       .  S
C604        O607   1.271       .  A
Cd605       O610   2.422       .  S
Cd605       O606   2.482       .  S
Cd605       O607   2.385       .  S
C608        C644   1.470       .  S
C608        O612   1.270       .  A
C613        C614   1.401       .  A
C613        C618   1.400       .  A
C613        F620   1.353       .  S
C614        C615   1.400       .  A
C615        C616   1.398       .  A
C615        F622   1.357       .  S
C616        C617   1.412       .  A
C616        F621   1.358       .  S
C617        C618   1.406       .  A
C618        F619   1.358       .  S
C623        C624   1.405       .  A
C623        C628   1.406       .  A
C623        F630   1.357       .  S
C624        C625   1.398       .  A
C625        C626   1.390       .  A
C625        F632   1.359       .  S
C626        C627   1.410       .  A
C627        C628   1.408       .  A
C628        F629   1.357       .  S
C633        C634   1.403       .  A
C633        C638   1.396       .  A
C633        F640   1.359       .  S
C634        C635   1.407       .  A
C635        C636   1.402       .  A
C635        F642   1.358       .  S
C636        C637   1.408       .  A
C636        F641   1.357       .  S
C637        C638   1.413       .  A
C638        F639   1.358       .  S
C643        C644   1.405       .  A
C643        C648   1.397       .  A
C643        F650   1.358       .  S
C644        C645   1.402       .  A
C645        C646   1.401       .  A
C645        F652   1.358       .  S
C646        C647   1.408       .  A
C646        F651   1.358       .  S
C647        C648   1.405       .  A
C648        F649   1.358       .  S
C653        C654   1.406       .  A
C653        C658   1.397       .  A
C653        F660   1.356       .  S
C654        C655   1.401       .  A
C655        C656   1.396       .  A
C655        F662   1.358       .  S
C656        C657   1.407       .  A
C656        F661   1.358       .  S
C657        C658   1.401       .  A
C658        F659   1.358       .  S
C663        C664   1.414       .  A
C663        C668   1.380       .  A
C663        F670   1.359       .  S
C664        C665   1.415       .  A
C665        C666   1.409       .  A
C665        F672   1.357       .  S
C666        C667   1.404       .  A
C666        F671   1.357       .  S
C667        C668   1.400       .  A
C668        F669   1.360       .  S
C673        C674   1.409       .  A
C673        C678   1.402       .  A
C673        F924   1.357       .  S
C674        C675   1.414       .  A
C675        C676   1.396       .  A
C675        F682   1.358       .  S
C676        C677   1.401       .  A
C676        F681   1.359       .  S
C677        C678   1.406       .  A
C678        F923   1.358       .  S
F679        C922   1.358       .  S
F680        C917   1.357       .  S
C683        C684   1.405       .  A
C683        C688   1.398       .  A
C683        F934   1.358       .  S
C684        C685   1.410       .  A
C685        C686   1.398       .  A
C685        F692   1.358       .  S
C686        C687   1.401       .  A
C686        F691   1.358       .  S
C687        C688   1.407       .  A
C688        F933   1.358       .  S
F689        C932   1.358   1_554  S
F690        C927   1.358   1_554  S
C693        C694   1.400       .  A
C693        C698   1.394       .  A
C693        F700   1.358       .  S
C694        C939   1.403       .  A
C695        C938   1.403   1_554  A
C695        C696   1.402       .  A
C695        F702   1.355       .  S
C696        C941   1.409   1_554  A
C696        F701   1.357       .  S
C697        C940   1.409       .  A
C697        C698   1.413       .  A
C698        F699   1.358       .  S
C703        C704   1.407       .  A
C703        C708   1.391       .  A
C703        F710   1.359       .  S
C704        C705   1.407       .  A
C705        C706   1.405       .  A
C705        F712   1.357       .  S
C706        C707   1.404       .  A
C706        F711   1.357       .  S
C707        C708   1.401       .  A
C708        F709   1.359       .  S
C713        C714   1.412       .  A
C713        C962   1.411       .  A
C713        F720   1.357       .  S
C714        C715   1.407   1_556  A
C715        C716   1.379   1_554  A
C715        F722   1.360       .  S
C716        C961   1.408       .  A
C716        F721   1.360   1_556  S
C717        C960   1.408       .  A
C717        C718   1.409       .  A
C718        C957   1.411       .  A
C718        F719   1.357       .  S
C723        C724   1.400   1_554  A
C723        C728   1.396       .  A
C723        F730   1.356       .  S
C724        C969   1.404       .  A
C725        C968   1.404       .  A
C725        C726   1.398       .  A
C725        F732   1.352       .  S
C726        C971   1.401       .  A
C726        F731   1.358       .  S
C727        C970   1.401   1_554  A
C727        C728   1.408       .  A
C728        F729   1.358       .  S
C733        C734   1.405       .  A
C733        C738   1.411       .  A
C734        C735   1.400       .  A
C734        H739   1.083       .  S
C735        C736   1.401       .  A
C735        C971   1.473       .  S
C736        C737   1.395       .  A
C736        H740   1.085       .  S
C737        C738   1.406       .  A
C737        C847   1.471       .  S
C738        H741   1.084       .  S
C743        C744   1.404       .  A
C744        C745   1.386       .  A
C744        C825   1.470       .  S
C745        C746   1.398       .  A
C745        H749   1.085       .  S
C746        C747   1.406       .  A
C746        C958   1.488       .  S
C751        C752   1.409       .  A
C751        C756   1.409       .  A
C751        C938   1.472       .  S
C754        C755   1.396   1_554  A
C754        H758   1.086       .  S
C755        C756   1.403       .  A
C755        C948   1.477       .  S
C756        H759   1.084       .  S
O760        C763   1.277       .  A
O760       Cd765   2.469       .  S
C761        C806   1.474       .  S
C761        O770   1.271       .  A
C761        O766   1.278       .  A
O762        C768   1.280       .  A
O762       Cd765   2.468       .  S
C763        O771   1.271   1_556  A
C764        C928   1.478       .  S
C764        O769   1.279       .  A
C764        O767   1.271       .  A
Cd765       O772   2.368       .  S
Cd765       O771   2.432   1_556  S
Cd765       O770   2.437       .  S
Cd765       O766   2.448       .  S
Cd765       O769   2.444       .  S
Cd765       O767   2.390       .  S
C768        C941   1.483       .  S
C768        O772   1.271       .  A
C773        C774   1.413       .  A
C773        C778   1.409       .  A
C773        C921   1.477   1_455  S
C774        C775   1.406       .  A
C774        H779   1.083       .  S
C775        C776   1.399       .  A
C775        C961   1.486       .  S
C776        C777   1.391       .  A
C776        H780   1.086       .  S
C777        C778   1.397       .  A
C777        C931   1.470       .  S
C778        H781   1.083       .  S
O782        C785   1.276       .  A
O782       Cd787   2.437       .  S
C783        O792   1.269   1_556  A
C783        O788   1.275       .  A
O784        C790   1.279   1_554  A
O784       Cd787   2.473   1_554  S
C785        C797   1.468       .  S
C785        O793   1.269       .  A
C786        C951   1.464       .  S
C786        O791   1.277   1_556  A
C786        O789   1.267       .  A
Cd787       O794   2.383       .  S
Cd787       O793   2.451       .  S
Cd787       O792   2.429   1_556  S
Cd787       O788   2.460       .  S
Cd787       O791   2.463   1_556  S
Cd787       O789   2.371       .  S
C790        C918   1.487       .  S
C790        O794   1.269       .  A
C795        C796   1.414       .  A
C795        C800   1.411       .  A
C795        C845   1.479       .  S
C796        C797   1.402       .  A
C796        H801   1.084       .  S
C797        C798   1.388       .  A
C798        C799   1.400       .  A
C798        H802   1.084       .  S
C799        C800   1.411       .  A
C799        C908   1.494       .  S
C800        H803   1.081       .  S
C804        C805   1.415       .  A
C804        C809   1.405       .  A
C804        C823   1.476       .  S
C805        C806   1.409       .  A
C805        H810   1.083       .  S
C806        C807   1.396       .  A
C807        C808   1.399       .  A
C807        H811   1.086       .  S
C808        C809   1.398       .  A
C808        C901   1.473       .  S
C809        H812   1.084       .  S
C813        C814   1.411       .  A
C813        C818   1.411       .  A
C813        C878   1.480       .  S
C814        C815   1.400   1_455  A
C814        H819   1.084       .  S
C815        C816   1.398       .  A
C815        C911   1.475       .  S
C816        C817   1.393       .  A
C816        H820   1.086       .  S
C817        C818   1.402   1_655  A
C817        C891   1.477       .  S
C818        H821   1.083       .  S
O822        C825   1.276       .  A
O822       Cd827   2.435       .  S
C823        O832   1.269       .  A
C823        O828   1.274       .  A
O824        C830   1.279       .  A
O824       Cd827   2.481       .  S
C825        O833   1.267       .  A
C826        C868   1.463       .  S
C826        O831   1.277       .  A
C826        O829   1.267       .  A
Cd827       O834   2.382       .  S
Cd827       O833   2.464       .  S
Cd827       O832   2.449       .  S
Cd827       O828   2.455       .  S
Cd827       O831   2.459       .  S
Cd827       O829   2.386       .  S
C830        C881   1.485       .  S
C830        O834   1.268       .  A
C835        C836   1.406       .  A
C835        C858   1.472       .  S
C836        C837   1.396       .  A
C836        H841   1.084       .  S
C837        C838   1.394       .  A
C837        C898   1.466       .  S
C838        H842   1.086       .  S
C839        C840   1.406       .  A
C839        C871   1.483       .  S
C840        H843   1.084       .  S
O844       Cd849   2.445   1_545  S
C845        O854   1.270       .  A
C845        O850   1.277       .  A
O846        C852   1.278       .  A
C847        O855   1.271       .  A
C848        C861   1.480       .  S
C848        O851   1.271       .  A
Cd849       O854   2.422       .  S
Cd849       O850   2.482       .  S
Cd849       O851   2.385       .  S
C852        C888   1.470       .  S
C852        O856   1.270       .  A
C857        C858   1.401       .  A
C857        C862   1.400       .  A
C857        F864   1.353       .  S
C858        C859   1.400       .  A
C859        C860   1.398       .  A
C859        F866   1.357       .  S
C860        C861   1.412       .  A
C860        F865   1.358       .  S
C861        C862   1.406       .  A
C862        F863   1.358       .  S
C867        C868   1.405       .  A
C867        C872   1.406       .  A
C867        F874   1.357       .  S
C868        C869   1.398       .  A
C869        C870   1.390       .  A
C869        F876   1.359       .  S
C870        C871   1.410       .  A
C871        C872   1.408       .  A
C872        F873   1.357       .  S
C877        C878   1.403       .  A
C877        C882   1.396       .  A
C877        F884   1.359       .  S
C878        C879   1.407       .  A
C879        C880   1.402       .  A
C879        F886   1.358       .  S
C880        C881   1.408       .  A
C880        F885   1.357       .  S
C881        C882   1.413       .  A
C882        F883   1.358       .  S
C887        C888   1.405       .  A
C887        C892   1.397       .  A
C887        F894   1.358       .  S
C888        C889   1.402       .  A
C889        C890   1.401       .  A
C889        F896   1.358       .  S
C890        C891   1.408       .  A
C890        F895   1.358       .  S
C891        C892   1.405       .  A
C892        F893   1.358       .  S
C897        C898   1.406       .  A
C897        C902   1.397       .  A
C897        F904   1.356       .  S
C898        C899   1.401       .  A
C899        C900   1.396       .  A
C899        F906   1.358       .  S
C900        C901   1.407       .  A
C900        F905   1.358       .  S
C901        C902   1.401       .  A
C902        F903   1.358       .  S
C907        C908   1.414       .  A
C907        C912   1.380       .  A
C907        F914   1.359       .  S
C908        C909   1.415       .  A
C909        C910   1.409       .  A
C909        F916   1.357       .  S
C910        C911   1.404       .  A
C910        F915   1.357       .  S
C911        C912   1.400       .  A
C912        F913   1.360       .  S
C917        C918   1.409   1_554  A
C917        C922   1.402       .  A
C918        C919   1.414       .  A
C919        C920   1.396       .  A
C919        F926   1.358       .  S
C920        C921   1.401       .  A
C920        F925   1.359       .  S
C921        C922   1.406   1_556  A
C927        C928   1.405       .  A
C927        C932   1.398       .  A
C928        C929   1.410       .  A
C929        C930   1.398       .  A
C929        F936   1.358       .  S
C930        C931   1.401       .  A
C930        F935   1.358       .  S
C931        C932   1.407       .  A
C937        C938   1.400       .  A
C937        C942   1.394       .  A
C937        F944   1.358       .  S
C939        C940   1.402       .  A
C939        F946   1.355       .  S
C940        F945   1.357       .  S
C941        C942   1.413       .  A
C942        F943   1.358       .  S
C947        C948   1.407       .  A
C947        C952   1.391       .  A
C947        F954   1.359       .  S
C948        C949   1.407   1_556  A
C949        C950   1.405       .  A
C949        F956   1.357       .  S
C950        C951   1.404   1_554  A
C950        F955   1.357       .  S
C951        C952   1.401       .  A
C952        F953   1.359       .  S
C957        C958   1.412       .  A
C957        F964   1.357       .  S
C958        C959   1.407       .  A
C959        C960   1.379       .  A
C959        F966   1.360       .  S
C960        F965   1.360       .  S
C961        C962   1.409       .  A
C962        F963   1.357       .  S
C967        C968   1.400       .  A
C967        C972   1.396       .  A
C967        F974   1.356       .  S
C969        C970   1.398       .  A
C969        F976   1.352       .  S
C970        F975   1.358       .  S
C971        C972   1.408       .  A
C972        F973   1.358       .  S
