geometry optimzed in LAMMPS
_audit_creation_date              2020-11-30 
_audit_creation_method            'lammps2cif' 
_symmetry_space_group_name_H-M    'P1' 
_symmetry_Int_Tables_number       1 
_symmetry_cell_setting            triclinic 
loop_ 
_symmetry_equiv_pos_as_xyz 
  x,y,z 
_cell_length_a                    43.90933314 
_cell_length_b                    43.74826663154627 
_cell_length_c                    44.46895188666455 
_cell_angle_alpha                 89.80007611441258 
_cell_angle_beta                  89.79322816304334 
_cell_angle_gamma                 90.05765795662008 
loop_ 
_atom_site_label 
_atom_site_type_symbol 
_atom_site_fract_x 
_atom_site_fract_y 
_atom_site_fract_z 
_atom_site_charge 
C1          C  0.35132609  0.66651183  0.16785508     0.86400
C2          C  0.33462148  0.64847632  0.14287547    -0.53800
C3          C  0.35335945  0.63042078  0.12587736     0.09300
C4          C  0.38678217  0.63221894  0.13503555     0.20300
C5          C  0.36861903  0.64160198  0.18583377    -0.54600
C6          C  0.38686675  0.62351981  0.16843650     0.09400
C7          C  0.37732166  0.68396100  0.15173322    -0.54100
C8          C  0.39525705  0.66606712  0.13424994     0.10000
H9          H  0.31013514  0.64924450  0.13963495     0.14500
H10         H  0.40188531  0.61783417  0.12084099     0.00300
H11         H  0.36592732  0.63797338  0.20985436     0.14800
H12         H  0.38324266  0.70765921  0.15498738     0.14600
C13         C  0.67867716  0.31063518  0.15837657     0.86400
C14         C  0.69594939  0.33073201  0.13528697    -0.53800
C15         C  0.67815914  0.35154594  0.12088972     0.09300
C16         C  0.64474420  0.35061226  0.13051810     0.20300
C17         C  0.66224804  0.33344240  0.17935371    -0.54600
C18         C  0.64477697  0.35438916  0.16473067     0.09400
C19         C  0.65250325  0.29645959  0.13961337    -0.54100
C20         C  0.63485463  0.31759572  0.12511910     0.10000
H21         H  0.71996858  0.32789085  0.13007996     0.14500
H22         H  0.63065164  0.36776779  0.11848833     0.00300
H23         H  0.66483335  0.33337143  0.20363782     0.14800
H24         H  0.64781050  0.27260810  0.13662418     0.14600
C25         C  0.68105745  0.65785067  0.16069028     0.86400
C26         C  0.66342531  0.67486442  0.13583396    -0.53800
C27         C  0.64838755  0.65617362  0.11645964     0.09300
C28         C  0.65145797  0.62222153  0.12395053     0.20300
C29         C  0.65721413  0.63700012  0.17611550    -0.54600
C30         C  0.64150428  0.61890534  0.15672672     0.09400
C31         C  0.70152312  0.63456411  0.14364151    -0.54100
C32         C  0.68573139  0.61573362  0.12461974     0.10000
H33         H  0.66288659  0.69960946  0.13380465     0.14500
H34         H  0.63853077  0.60724912  0.10838921     0.00300
H35         H  0.65397116  0.63454196  0.20004011     0.14800
H36         H  0.72583906  0.63236259  0.14738192     0.14600
C37         C  0.34649718  0.31174289  0.17293700     0.86400
C38         C  0.36921700  0.29187325  0.15491108    -0.53800
C39         C  0.39194238  0.30816118  0.14096727     0.09300
C40         C  0.38988417  0.34272996  0.14649915     0.20300
C41         C  0.36605663  0.33088781  0.19448687    -0.54600
C42         C  0.38876389  0.34662802  0.18067864     0.09400
C43         C  0.33520329  0.33551088  0.14945404    -0.54100
C44         C  0.35804877  0.35170750  0.13589511     0.10000
H45         H  0.36666639  0.26732684  0.15237042     0.14500
H46         H  0.40805410  0.35645570  0.13544875     0.00300
H47         H  0.36144925  0.33293561  0.21841697     0.14800
H48         H  0.31177531  0.33984392  0.14344188     0.14600
O49         O  0.54461768  0.45079547  0.17211374    -0.73000
O50         O  0.47650130  0.50948562  0.16907203    -0.74000
O51         O  0.53957491  0.51388603  0.16347096    -0.62600
O52         O  0.48066866  0.44650030  0.17831005    -0.71000
O53         O  0.48378806  0.45319043  0.22774941    -0.70600
O54         O  0.54481181  0.52023213  0.21272109    -0.61800
O55         O  0.48009430  0.51776894  0.21805626    -0.74400
O56         O  0.54878366  0.45593285  0.22162975    -0.73100
Cu57       Cu  0.51021419  0.47978176  0.16918251     1.04600
Cu58       Cu  0.51450067  0.48697522  0.22193435     1.04300
C59         C  0.55796574  0.44449899  0.19676446     0.93200
C60         C  0.46753495  0.52328868  0.19264246     0.92300
C61         C  0.55140789  0.52782747  0.18569295     0.84500
C62         C  0.47233603  0.43970716  0.20502848     0.90700
C63         C  0.33351777  0.31436539  0.82478273     0.86400
C64         C  0.32107582  0.33699393  0.84906288    -0.53800
C65         C  0.34355222  0.35099388  0.86579349     0.09300
C66         C  0.37580760  0.34174898  0.85568704     0.20300
C67         C  0.35506831  0.33490587  0.80587022    -0.54600
C68         C  0.37700090  0.34929313  0.82204852     0.09400
C69         C  0.35440098  0.29266335  0.84266918    -0.54100
C70         C  0.37628697  0.30707997  0.85864537     0.10000
H71         H  0.29755245  0.34334530  0.85162065     0.14500
H72         H  0.39496061  0.35188570  0.86835994     0.00300
H73         H  0.35198281  0.33909415  0.78198078     0.14800
H74         H  0.35083992  0.26811560  0.84406212     0.14600
C75         C  0.67364275  0.31639653  0.81686624     0.86400
C76         C  0.65292864  0.33521186  0.79601059    -0.53800
C77         C  0.63407828  0.35465633  0.81070378     0.09300
C78         C  0.63758534  0.35403828  0.84508412     0.20300
C79         C  0.69030199  0.34010935  0.83680743    -0.54600
C80         C  0.67137187  0.36027790  0.85112948     0.09400
C81         C  0.65121839  0.30066893  0.83918748    -0.54100
C82         C  0.63262479  0.32052423  0.85438695     0.10000
H83         H  0.65251042  0.33256368  0.77173173     0.14500
H84         H  0.62237854  0.37018843  0.85695546     0.00300
H85         H  0.71487318  0.34074589  0.83938519     0.14800
H86         H  0.64967028  0.27633650  0.84289936     0.14600
C87         C  0.68107098  0.65888272  0.81850455     0.86400
C88         C  0.66255953  0.63548589  0.79980693    -0.53800
C89         C  0.64564072  0.61561754  0.81685271     0.09300
C90         C  0.64809567  0.62127635  0.85071744     0.20300
C91         C  0.65621199  0.67455114  0.83784302    -0.54600
C92         C  0.63938568  0.65483993  0.85487323     0.09400
C93         C  0.69947581  0.63952759  0.84127958    -0.54100
C94         C  0.68210971  0.62000733  0.85822403     0.10000
H95         H  0.66242973  0.63506676  0.77539956     0.14500
H96         H  0.63401857  0.60524414  0.86435260     0.00300
H97         H  0.65067063  0.69860986  0.83751023     0.14800
H98         H  0.72380310  0.64227099  0.84463533     0.14600
C99         C  0.33248510  0.65908702  0.83037566     0.86400
C100        C  0.31589533  0.63320547  0.84797749    -0.53800
C101        C  0.33447514  0.61720592  0.86684485     0.09300
C102        C  0.36771904  0.62769774  0.86617698     0.20300
C103        C  0.34871231  0.67842178  0.85462161    -0.54600
C104        C  0.36685561  0.66185651  0.87352244     0.09400
C105        C  0.35849502  0.64168262  0.81428912    -0.54100
C106        C  0.37708769  0.62549641  0.83299201     0.10000
H107        H  0.29281769  0.62564333  0.84423154     0.14500
H108        H  0.38251224  0.61422968  0.88146624     0.00300
H109        H  0.34630256  0.70305253  0.85637111     0.14800
H110        H  0.36148444  0.64161161  0.79003090     0.14600
O111        O  0.36537534  0.45889925  0.03376146    -0.73000
O112        O  0.35393305  0.51703279  0.96484608    -0.74000
O113        O  0.35962169  0.52385042  0.02812705    -0.62600
O114        O  0.36011812  0.45381788  0.97123345    -0.71000
O115        O  0.31006211  0.44917534  0.97406195    -0.70600
O116        O  0.30965868  0.51958063  0.03419505    -0.61800
O117        O  0.30373920  0.51399781  0.96992503    -0.74400
O118        O  0.31522916  0.45413840  0.03814439    -0.73100
Cu119      Cu  0.36138404  0.48861407  0.99952066     1.04600
Cu120      Cu  0.30782887  0.48409811  0.00441575     1.04300
C121        C  0.34211354  0.44642236  0.04603810     0.93200
C122        C  0.32718896  0.52405274  0.95593069     0.92300
C123        C  0.33481268  0.53321945  0.03997289     0.84500
C124        C  0.33562126  0.44093485  0.96267725     0.90700
O125        O  0.47215471  0.66218314  0.96684706    -0.73000
O126        O  0.54728701  0.65825536  0.01676254    -0.74000
O127        O  0.48520417  0.66371221  0.02879132    -0.62600
O128        O  0.53494703  0.65653907  0.95473836    -0.71000
O129        O  0.54143835  0.70685227  0.95389805    -0.70600
O130        O  0.48565366  0.71440524  0.02559761    -0.61800
O131        O  0.54927672  0.70900130  0.01771716    -0.74400
O132        O  0.47695592  0.71244473  0.96181400    -0.73100
Cu133      Cu  0.50971557  0.65851148  0.99175264     1.04600
Cu134      Cu  0.51347974  0.71258327  0.98954289     1.04300
C135        C  0.46276634  0.68759383  0.95612477     0.93200
C136        C  0.55935625  0.68295380  0.02616886     0.92300
C137        C  0.47766199  0.68981239  0.03906497     0.84500
C138        C  0.54679727  0.68036950  0.94297614     0.90700
O139        O  0.67556157  0.45947302  0.95599682    -0.73000
O140        O  0.68100271  0.51499296  0.02668625    -0.74000
O141        O  0.67912562  0.52331233  0.96379000    -0.62600
O142        O  0.67728066  0.45156877  0.01863608    -0.71000
O143        O  0.72778775  0.44983142  0.01935467    -0.70600
O144        O  0.72935373  0.52020144  0.95968366    -0.61800
O145        O  0.73146336  0.51485864  0.02428045    -0.74400
O146        O  0.72584217  0.45446106  0.95524192    -0.73100
Cu147      Cu  0.67663535  0.48747319  0.99130504     1.04600
Cu148      Cu  0.73052569  0.48479315  0.98950914     1.04300
C149        C  0.69958313  0.44757492  0.94481884     0.93200
C150        C  0.70675105  0.52351262  0.03698068     0.92300
C151        C  0.70417250  0.53318416  0.95282661     0.84500
C152        C  0.70192294  0.43942195  0.02790425     0.90700
O153        O  0.53333493  0.31840538  0.02131823    -0.73000
O154        O  0.46612011  0.30877422  0.96257329    -0.74000
O155        O  0.47084021  0.30984648  0.02571710    -0.62600
O156        O  0.52935729  0.31753322  0.95811206    -0.71000
O157        O  0.53749398  0.26751592  0.95790319    -0.70600
O158        O  0.47630105  0.25934240  0.02600484    -0.61800
O159        O  0.47322352  0.25851466  0.96114272    -0.74400
O160        O  0.54039251  0.26814948  0.02200908    -0.73100
Cu161      Cu  0.49964948  0.31525462  0.99178038     1.04600
Cu162      Cu  0.50704274  0.26146954  0.99170062     1.04300
C163        C  0.54701224  0.29487331  0.03154607     0.93200
C164        C  0.45911266  0.28246735  0.95241462     0.92300
C165        C  0.46509682  0.28376992  0.03728157     0.84500
C166        C  0.54273371  0.29418484  0.94718077     0.90700
O167        O  0.47131800  0.52335668  0.77413767    -0.73000
O168        O  0.53450191  0.45667904  0.76504344    -0.74000
O169        O  0.46986543  0.45763896  0.76993681    -0.62600
O170        O  0.53656302  0.52225226  0.76908240    -0.71000
O171        O  0.54188799  0.51581945  0.81830289    -0.70600
O172        O  0.47159821  0.45686070  0.81982604    -0.61800
O173        O  0.53510273  0.45168609  0.81477124    -0.74400
O174        O  0.47786461  0.52124474  0.82355377    -0.73100
Cu175      Cu  0.50289461  0.49019280  0.76769715     1.04600
Cu176      Cu  0.50671419  0.48637919  0.82074791     1.04300
C177        C  0.46512886  0.53309611  0.80056261     0.93200
C178        C  0.54378958  0.44304324  0.78877314     0.92300
C179        C  0.46045553  0.44704652  0.79517387     0.84500
C180        C  0.55018856  0.52857196  0.79370338     0.90700
C181        C  0.67806642  0.16349850  0.65994187     0.86400
C182        C  0.69594427  0.14490419  0.63595866    -0.53800
C183        C  0.67793284  0.12685533  0.61817992     0.09300
C184        C  0.64401041  0.12867612  0.62609103     0.20300
C185        C  0.65357495  0.18091213  0.64139292    -0.54600
C186        C  0.63573473  0.16258973  0.62410752     0.09400
C187        C  0.65935941  0.13928337  0.67742542    -0.54100
C188        C  0.64180916  0.12090647  0.65972687     0.10000
H189        H  0.72051568  0.14595745  0.63337172     0.14500
H190        H  0.62971499  0.11400486  0.61146951     0.00300
H191        H  0.64944106  0.20525303  0.64161271     0.14800
H192        H  0.66030488  0.13674049  0.70169120     0.14600
C193        C  0.68404054  0.16403787  0.31508038     0.86400
C194        C  0.69982647  0.13792125  0.33300363    -0.53800
C195        C  0.68017995  0.11914563  0.34793221     0.09300
C196        C  0.64679042  0.12772243  0.34389967     0.20300
C197        C  0.66124466  0.14699029  0.29458074    -0.54600
C198        C  0.64148782  0.12843713  0.30990958     0.09400
C199        C  0.66390095  0.18025878  0.33879892    -0.54100
C200        C  0.64448998  0.16100266  0.35374299     0.10000
H201        H  0.72403613  0.13367567  0.33437050     0.14500
H202        H  0.63094773  0.11240738  0.35639107     0.00300
H203        H  0.66009455  0.15027185  0.27039962     0.14800
H204        H  0.66519282  0.20455448  0.34354597     0.14600
C205        C  0.33756657  0.16695233  0.65471716     0.86400
C206        C  0.35560143  0.14357657  0.67402303    -0.53800
C207        C  0.37509586  0.12554008  0.65783067     0.09300
C208        C  0.37547900  0.13307408  0.62413058     0.20300
C209        C  0.36288028  0.18509903  0.63795577    -0.54600
C210        C  0.38254564  0.16728255  0.62218713     0.09400
C211        C  0.32242947  0.14745425  0.62990918    -0.54100
C212        C  0.34234387  0.12977349  0.61376049     0.10000
H213        H  0.35243437  0.14096100  0.69810944     0.14500
H214        H  0.39177943  0.11877575  0.61128648     0.00300
H215        H  0.36623976  0.20955027  0.63843751     0.14800
H216        H  0.29808440  0.14752388  0.62572201     0.14600
C217        C  0.32832060  0.16549031  0.32596601     0.86400
C218        C  0.35176784  0.18132039  0.34670033    -0.53800
C219        C  0.36845724  0.16141323  0.36361845     0.09300
C220        C  0.36105096  0.12780402  0.35774763     0.20300
C221        C  0.34844753  0.14355503  0.30701522    -0.54600
C222        C  0.36587660  0.12390106  0.32373908     0.09400
C223        C  0.30962542  0.14434144  0.34666908    -0.54100
C224        C  0.32676846  0.12456996  0.36292394     0.10000
H225        H  0.35626243  0.20555194  0.34734829     0.14500
H226        H  0.37474310  0.11204513  0.37183526     0.00300
H227        H  0.34841974  0.14350088  0.28262905     0.14800
H228        H  0.28490166  0.14443087  0.34771032     0.14600
O229        O  0.54327344  0.21227996  0.51711528    -0.73000
O230        O  0.47815514  0.20738705  0.45305829    -0.74000
O231        O  0.47874148  0.21345563  0.51692289    -0.62600
O232        O  0.54349582  0.20653485  0.45275579    -0.71000
O233        O  0.54257441  0.15600978  0.45749575    -0.70600
O234        O  0.47897593  0.16281826  0.52106914    -0.61800
O235        O  0.47795075  0.15689988  0.45824208    -0.74400
O236        O  0.54177047  0.16162584  0.52029380    -0.73100
Cu237      Cu  0.51101433  0.21180644  0.48455598     1.04600
Cu238      Cu  0.51032345  0.15769418  0.48917996     1.04300
C239        C  0.55157949  0.18729489  0.52966307     0.93200
C240        C  0.46703644  0.18118159  0.44660474     0.92300
C241        C  0.46954078  0.18893491  0.52974321     0.84500
C242        C  0.55365367  0.18016222  0.44554461     0.90700
C243        C  0.67564960  0.82421794  0.30654613     0.86400
C244        C  0.65892147  0.84983963  0.28878424    -0.53800
C245        C  0.64210655  0.86902824  0.30630469     0.09300
C246        C  0.64308855  0.86089419  0.33985185     0.20300
C247        C  0.69418671  0.84199761  0.33052999    -0.54600
C248        C  0.67694392  0.86081926  0.34827431     0.09400
C249        C  0.65001415  0.80816196  0.32467784    -0.54100
C250        C  0.63298989  0.82737430  0.34217229     0.10000
H251        H  0.66027166  0.85371394  0.26481037     0.14500
H252        H  0.62936077  0.87648870  0.35406693     0.00300
H253        H  0.71845005  0.83886990  0.33392111     0.14800
H254        H  0.64622763  0.78363702  0.32422519     0.14600
C255        C  0.34132612  0.82080369  0.31647452     0.86400
C256        C  0.32074174  0.83915258  0.33802641    -0.53800
C257        C  0.33606433  0.85966327  0.35528391     0.09300
C258        C  0.37043061  0.86067263  0.34919500     0.20300
C259        C  0.35921069  0.84500009  0.29814515    -0.54600
C260        C  0.37370803  0.86637825  0.31522064     0.09400
C261        C  0.36608318  0.80674389  0.33742092    -0.54100
C262        C  0.38135776  0.82785686  0.35429110     0.10000
H263        H  0.29644398  0.83511535  0.34044967     0.14500
H264        H  0.38270703  0.87739197  0.36345874     0.00300
H265        H  0.36020016  0.84522559  0.27374673     0.14800
H266        H  0.37198071  0.78279808  0.33888999     0.14600
C267        C  0.34238279  0.81477265  0.66161617     0.86400
C268        C  0.36777027  0.79976304  0.64239840    -0.53800
C269        C  0.38642442  0.82040556  0.62833763     0.09300
C270        C  0.37871737  0.85376153  0.63556922     0.20300
C271        C  0.36003144  0.83539913  0.68354161    -0.54600
C272        C  0.37858273  0.85584001  0.66974753     0.09400
C273        C  0.32632730  0.83664430  0.63935146    -0.54100
C274        C  0.34540607  0.85730197  0.62575132     0.10000
H275        H  0.37132158  0.77549051  0.63976553     0.14500
H276        H  0.39451199  0.87071719  0.62540568     0.00300
H277        H  0.35817067  0.83380933  0.70786635     0.14800
H278        H  0.30237894  0.83452411  0.63386766     0.14600
C279        C  0.68060944  0.82146087  0.66413135     0.86400
C280        C  0.65761353  0.80344956  0.64475784    -0.53800
C281        C  0.63752221  0.82146520  0.62951963     0.09300
C282        C  0.64230899  0.85573983  0.63463964     0.20300
C283        C  0.69584652  0.84325436  0.64072259    -0.54600
C284        C  0.67564758  0.86128768  0.62524190     0.09400
C285        C  0.66122626  0.84277842  0.68411411    -0.54100
C286        C  0.64140437  0.86065739  0.66862176     0.10000
H287        H  0.65820208  0.77878139  0.64218053     0.14500
H288        H  0.62524479  0.87019116  0.62299560     0.00300
H289        H  0.71969657  0.84294633  0.63483244     0.14800
H290        H  0.66341838  0.84394503  0.70840419     0.14600
O291        O  0.72059121  0.95804928  0.51964982    -0.73000
O292        O  0.72567949  0.02191060  0.45332276    -0.74000
O293        O  0.72362428  0.02348719  0.51821392    -0.62600
O294        O  0.72309745  0.95619379  0.45481218    -0.71000
O295        O  0.67266052  0.95714794  0.45544892    -0.70600
O296        O  0.67341329  0.02724535  0.51432899    -0.61800
O297        O  0.67517874  0.02140277  0.45086513    -0.74400
O298        O  0.67042452  0.96272113  0.51861095    -0.73100
Cu299      Cu  0.72515179  0.98990322  0.48656854     1.04600
Cu300      Cu  0.67131936  0.99226722  0.48479319     1.04300
C301        C  0.69422181  0.95027217  0.52943702     0.93200
C302        C  0.70084190  0.03098863  0.44125175     0.92300
C303        C  0.69847824  0.03596422  0.52609569     0.84500
C304        C  0.69754695  0.94567089  0.44558970     0.90700
O305        O  0.53836723  0.95471953  0.67154098    -0.73000
O306        O  0.47337472  0.01762107  0.66406937    -0.74000
O307        O  0.53817000  0.01785480  0.66325915    -0.62600
O308        O  0.47418547  0.95402624  0.67268056    -0.71000
O309        O  0.47370828  0.96037844  0.72225738    -0.70600
O310        O  0.53918656  0.02477193  0.71262102    -0.61800
O311        O  0.47318636  0.02527502  0.71327142    -0.74400
O312        O  0.53915076  0.96005089  0.72119469    -0.73100
Cu313      Cu  0.50592231  0.98589947  0.66632217     1.04600
Cu314      Cu  0.50626874  0.99293850  0.71921156     1.04300
C315        C  0.54939555  0.94771169  0.69712586     0.93200
C316        C  0.46237478  0.03103438  0.68711495     0.92300
C317        C  0.54975389  0.03055292  0.68634885     0.84500
C318        C  0.46388827  0.94707934  0.69866330     0.90700
O319        O  0.34017799  0.02352473  0.51435030    -0.73000
O320        O  0.33522206  0.95435200  0.45664018    -0.74000
O321        O  0.33155682  0.01869892  0.45203361    -0.62600
O322        O  0.34381636  0.95945245  0.51865940    -0.71000
O323        O  0.29405509  0.95507448  0.52539682    -0.70600
O324        O  0.28157401  0.01838428  0.46013418    -0.61800
O325        O  0.28491758  0.95263173  0.46161268    -0.74400
O326        O  0.29064442  0.02054123  0.52361385    -0.73100
Cu327      Cu  0.33927216  0.98907691  0.48516083     1.04600
Cu328      Cu  0.28588833  0.98653150  0.49292716     1.04300
C329        C  0.31656825  0.03302866  0.52831362     0.93200
C330        C  0.30960118  0.94244390  0.44998604     0.92300
C331        C  0.30494980  0.02860610  0.44612068     0.84500
C332        C  0.32125228  0.94723858  0.53223327     0.90700
O333        O  0.54171374  0.96786359  0.30546946    -0.73000
O334        O  0.47501363  0.02747447  0.31416703    -0.74000
O335        O  0.47745560  0.96422587  0.30978779    -0.62600
O336        O  0.53834531  0.03159009  0.30896010    -0.71000
O337        O  0.53582234  0.03457932  0.25918635    -0.70600
O338        O  0.47351962  0.96620654  0.26004390    -0.61800
O339        O  0.47026047  0.03145508  0.26470892    -0.74400
O340        O  0.53925038  0.96905864  0.25566304    -0.73100
Cu341      Cu  0.50836348  0.99757307  0.31108977     1.04600
Cu342      Cu  0.50464672  0.00039199  0.25794549     1.04300
C343        C  0.55166602  0.95928271  0.27990397     0.93200
C344        C  0.46140948  0.03846158  0.29135418     0.92300
C345        C  0.46499433  0.95532762  0.28543028     0.84500
C346        C  0.54640495  0.04410372  0.28421489     0.90700
O347        O  0.54662293  0.77633784  0.51905907    -0.73000
O348        O  0.47874227  0.78149015  0.45771214    -0.74000
O349        O  0.54368950  0.77850826  0.45371020    -0.62600
O350        O  0.48220154  0.77954854  0.52193310    -0.71000
O351        O  0.48559918  0.83016426  0.52309661    -0.70600
O352        O  0.54530597  0.82915558  0.45561422    -0.61800
O353        O  0.48187461  0.83210168  0.45934746    -0.74400
O354        O  0.54896905  0.82705676  0.51986953    -0.73100
Cu355      Cu  0.51282341  0.77708386  0.48803483     1.04600
Cu356      Cu  0.51559929  0.83125383  0.48951146     1.04300
C357        C  0.55748217  0.80108274  0.52991748     0.93200
C358        C  0.46995347  0.80781897  0.44866879     0.92300
C359        C  0.55319032  0.80410211  0.44319331     0.84500
C360        C  0.47487774  0.80520189  0.53360737     0.90700
C361        C  0.83379440  0.32420123  0.66676172     0.86400
C362        C  0.85570366  0.30668024  0.64579455    -0.53800
C363        C  0.87196646  0.32491905  0.62670820     0.09300
C364        C  0.86518665  0.35905946  0.63038957     0.20300
C365        C  0.85488768  0.34767504  0.68282476    -0.54600
C366        C  0.87141553  0.36564925  0.66352141     0.09400
C367        C  0.81415711  0.34442403  0.64564252    -0.54100
C368        C  0.83090182  0.36226759  0.62648291     0.10000
H369        H  0.85878671  0.28208823  0.64696499     0.14500
H370        H  0.87814709  0.37402418  0.61467346     0.00300
H371        H  0.85693422  0.35062655  0.70694989     0.14800
H372        H  0.78942735  0.34425424  0.64557491     0.14600
C373        C  0.83347263  0.32249161  0.31994581     0.86400
C374        C  0.85179057  0.34559737  0.30081037    -0.53800
C375        C  0.87086485  0.36364830  0.31703156     0.09300
C376        C  0.87023590  0.35695471  0.35086621     0.20300
C377        C  0.85754281  0.30461702  0.33834993    -0.54600
C378        C  0.87695476  0.32272855  0.35420879     0.09400
C379        C  0.81742455  0.34205561  0.34422546    -0.54100
C380        C  0.83674774  0.36046314  0.35979880     0.10000
H381        H  0.84884416  0.34821249  0.27669807     0.14500
H382        H  0.88582856  0.37163941  0.36415032     0.00300
H383        H  0.85886409  0.27983466  0.33902589     0.14800
H384        H  0.79388779  0.34033642  0.35097967     0.14600
C385        C  0.83631647  0.66884733  0.32170133     0.86400
C386        C  0.85282488  0.68501223  0.34795263    -0.53800
C387        C  0.87163900  0.66651412  0.36414873     0.09300
C388        C  0.87165885  0.63319587  0.35343007     0.20300
C389        C  0.86174891  0.65311901  0.30340465    -0.54600
C390        C  0.88010415  0.63439807  0.31990303     0.09400
C391        C  0.81943191  0.64220375  0.33785921    -0.54100
C392        C  0.83799737  0.62329207  0.35421064     0.10000
H393        H  0.84877835  0.70818685  0.35517968     0.14500
H394        H  0.88697742  0.61841427  0.36691364     0.00300
H395        H  0.86469904  0.65635188  0.27934208     0.14800
H396        H  0.79496208  0.63884974  0.33672118     0.14600
C397        C  0.83614895  0.66599871  0.66098064     0.86400
C398        C  0.85965255  0.64671579  0.67867970    -0.53800
C399        C  0.87795303  0.62913976  0.66077498     0.09300
C400        C  0.87079288  0.63211147  0.62714762     0.20300
C401        C  0.85523805  0.68411150  0.63765694    -0.54600
C402        C  0.87327936  0.66620124  0.61998317     0.09400
C403        C  0.81877517  0.64165186  0.64249525    -0.54100
C404        C  0.83694700  0.62436180  0.62459998     0.10000
H405        H  0.86184469  0.64732167  0.70297204     0.14500
H406        H  0.88554261  0.61782257  0.61252832     0.00300
H407        H  0.85463140  0.70883706  0.63550767     0.14800
H408        H  0.79480630  0.63637527  0.64444830     0.14600
O409        O  0.97901714  0.71745044  0.52629120    -0.73000
O410        O  0.03852007  0.72070738  0.45677023    -0.74000
O411        O  0.97328360  0.72062917  0.46205178    -0.62600
O412        O  0.04473001  0.71655038  0.52090932    -0.71000
O413        O  0.04378218  0.66612390  0.51667621    -0.70600
O414        O  0.97322696  0.66992694  0.46155885    -0.61800
O415        O  0.03637998  0.67007806  0.45384845    -0.74400
O416        O  0.97943218  0.66676895  0.52359441    -0.73100
Cu417      Cu  0.00898780  0.72078603  0.49170463     1.04600
Cu418      Cu  0.00831090  0.66665116  0.48895456     1.04300
C419        C  0.96909832  0.69140426  0.53504627     0.93200
C420        C  0.04622776  0.69571217  0.44406243     0.92300
C421        C  0.96191633  0.69528454  0.45296421     0.84500
C422        C  0.05590504  0.69024982  0.52733629     0.90700
O423        O  0.04393944  0.46237056  0.71240929    -0.73000
O424        O  0.97784357  0.52742049  0.70884482    -0.74000
O425        O  0.97804959  0.46158234  0.70913578    -0.62600
O426        O  0.04291512  0.52766384  0.71262518    -0.71000
O427        O  0.04431219  0.52726227  0.66270680    -0.70600
O428        O  0.98060576  0.46270729  0.65928063    -0.61800
O429        O  0.98114430  0.52696439  0.65907050    -0.74400
O430        O  0.04547506  0.46351176  0.66252513    -0.73100
Cu431      Cu  0.01052459  0.49453424  0.71265470     1.04600
Cu432      Cu  0.01296795  0.49485638  0.65933387     1.04300
C433        C  0.05593523  0.45384739  0.68754057     0.93200
C434        C  0.97000585  0.53812318  0.68314202     0.92300
C435        C  0.96848238  0.45259688  0.68348727     0.84500
C436        C  0.05319515  0.53824508  0.68774481     0.90700
O437        O  0.03390791  0.45786976  0.26780864    -0.73000
O438        O  0.97687619  0.53106248  0.26782409    -0.74000
O439        O  0.04152594  0.52319231  0.26925576    -0.62600
O440        O  0.96909615  0.46577002  0.26662282    -0.71000
O441        O  0.96732271  0.46754114  0.31644686    -0.70600
O442        O  0.04121229  0.51921528  0.31901818    -0.61800
O443        O  0.97849930  0.53092821  0.31767748    -0.74400
O444        O  0.03006157  0.45578476  0.31752413    -0.73100
Cu445      Cu  0.00542146  0.49448356  0.26596596     1.04600
Cu446      Cu  0.00423479  0.49330909  0.31924580     1.04300
C447        C  0.04046038  0.44504010  0.29288124     0.93200
C448        C  0.96940813  0.54291624  0.29307477     0.92300
C449        C  0.05266825  0.53015491  0.29489480     0.84500
C450        C  0.95656614  0.45810338  0.29156221     0.90700
O451        O  0.97109853  0.27227761  0.46024181    -0.73000
O452        O  0.03344300  0.27461121  0.52774294    -0.74000
O453        O  0.96870908  0.27569163  0.52491494    -0.62600
O454        O  0.03651142  0.27094914  0.46370381    -0.71000
O455        O  0.03802702  0.32168074  0.46277842    -0.70600
O456        O  0.96947631  0.32623131  0.52040215    -0.61800
O457        O  0.03266366  0.32520971  0.52519093    -0.74400
O458        O  0.97436127  0.32280591  0.45693831    -0.73100
Cu459      Cu  0.00226423  0.27145047  0.49412672     1.04600
Cu460      Cu  0.00351788  0.32558633  0.49110538     1.04300
C461        C  0.96348962  0.29749632  0.44764209     0.93200
C462        C  0.04249328  0.30064910  0.53730846     0.92300
C463        C  0.95952490  0.30207247  0.53321590     0.84500
C464        C  0.04867564  0.29590402  0.45462848     0.90700
O465        O  0.83873744  0.46040567  0.46166708    -0.73000
O466        O  0.83833074  0.52552164  0.52240268    -0.74000
O467        O  0.83732761  0.46165687  0.52460670    -0.62600
O468        O  0.83856816  0.52434329  0.45850755    -0.71000
O469        O  0.78809298  0.52606500  0.45821615    -0.70600
O470        O  0.78672900  0.46223146  0.52412766    -0.61800
O471        O  0.78780842  0.52690587  0.52320915    -0.74400
O472        O  0.78822351  0.46061999  0.45967146    -0.73100
Cu473      Cu  0.83987563  0.49317211  0.49175033     1.04600
Cu474      Cu  0.78581546  0.49411091  0.49120819     1.04300
C475        C  0.81395629  0.44964866  0.45139701     0.93200
C476        C  0.81355185  0.53531863  0.53376552     0.92300
C477        C  0.81176743  0.45206423  0.53472324     0.84500
C478        C  0.81373891  0.53460076  0.44738872     0.90700
C479        C  0.17883961  0.31946303  0.66010619     0.86400
C480        C  0.19729688  0.33444132  0.63436185    -0.53800
C481        C  0.18084788  0.35401440  0.61689140     0.09300
C482        C  0.14760914  0.35752863  0.62696601     0.20300
C483        C  0.16483719  0.34656988  0.67766748    -0.54600
C484        C  0.14882445  0.36667687  0.66031872     0.09400
C485        C  0.15051213  0.30512597  0.64477871    -0.54100
C486        C  0.13432577  0.32501222  0.62714750     0.10000
H487        H  0.22126838  0.32986409  0.63033462     0.14500
H488        H  0.13491321  0.37382243  0.61257816     0.00300
H489        H  0.16647958  0.34906749  0.70189419     0.14800
H490        H  0.14264682  0.28197638  0.64849032     0.14600
C491        C  0.17732892  0.66472553  0.32069201     0.86400
C492        C  0.16019045  0.63802032  0.30524441    -0.53800
C493        C  0.14159622  0.62179651  0.32395669     0.09300
C494        C  0.14147590  0.63354565  0.35640360     0.20300
C495        C  0.15219194  0.68394441  0.33556186    -0.54600
C496        C  0.13342016  0.66767855  0.35401166     0.09400
C497        C  0.19393327  0.64877680  0.34701040    -0.54100
C498        C  0.17516076  0.63278379  0.36605786     0.10000
H499        H  0.16280971  0.63102194  0.28210019     0.14500
H500        H  0.12583577  0.62039185  0.37124086     0.00300
H501        H  0.14967048  0.70839269  0.33203972     0.14800
H502        H  0.21844734  0.64971774  0.34998446     0.14600
C503        C  0.18561891  0.66385164  0.65725283     0.86400
C504        C  0.20215924  0.63897557  0.63894391    -0.53800
C505        C  0.18321208  0.62064384  0.62280141     0.09300
C506        C  0.14944239  0.62957332  0.62533588     0.20300
C507        C  0.16727208  0.68151422  0.63282002    -0.54600
C508        C  0.14820344  0.66351586  0.61625892     0.09400
C509        C  0.16116713  0.64677531  0.67580171    -0.54100
C510        C  0.14205671  0.62917087  0.65912150     0.10000
H511        H  0.22671746  0.63605174  0.63882137     0.14500
H512        H  0.13427075  0.61462964  0.61189933     0.00300
H513        H  0.16977174  0.70550189  0.62747147     0.14800
H514        H  0.15902228  0.64875787  0.70005907     0.14600
C515        C  0.17129309  0.31701686  0.32007330     0.86400
C516        C  0.15459768  0.29928062  0.34545227    -0.53800
C517        C  0.13566721  0.31686610  0.36230269     0.09300
C518        C  0.13504238  0.35053473  0.35293433     0.20300
C519        C  0.14579977  0.33315324  0.30221936    -0.54600
C520        C  0.12659817  0.35038119  0.31948713     0.09400
C521        C  0.18755178  0.34295249  0.33748463    -0.54100
C522        C  0.16843579  0.36093488  0.35423982     0.10000
H523        H  0.15847679  0.27561236  0.35146683     0.14500
H524        H  0.11955235  0.36444537  0.36711345     0.00300
H525        H  0.14330917  0.33117539  0.27801723     0.14800
H526        H  0.21202230  0.34644909  0.33702453     0.14600
O527        O  0.23244971  0.52062924  0.52127124    -0.73000
O528        O  0.22580799  0.45958605  0.45277438    -0.74000
O529        O  0.22795368  0.52539339  0.45745015    -0.62600
O530        O  0.23095726  0.45510521  0.51695003    -0.71000
O531        O  0.18041827  0.45471896  0.51802699    -0.70600
O532        O  0.17787671  0.52733483  0.46365147    -0.61800
O533        O  0.17552191  0.46335475  0.45564355    -0.74400
O534        O  0.18213778  0.51846030  0.52587907    -0.73100
Cu535      Cu  0.23120831  0.49010406  0.48691756     1.04600
Cu536      Cu  0.17738159  0.49099422  0.49090012     1.04300
C537        C  0.20781797  0.52883152  0.53442997     0.93200
C538        C  0.19927550  0.45206660  0.44341494     0.92300
C539        C  0.20229515  0.53801059  0.45193929     0.84500
C540        C  0.20589790  0.44364651  0.52648753     0.90700
C541        C  0.25311406  0.24017943  0.24232762    -0.02600
C542        C  0.76474063  0.24144407  0.23690689    -0.02600
C543        C  0.26268896  0.73683696  0.24274807    -0.02600
C544        C  0.25933434  0.24089249  0.73797896    -0.02600
C545        C  0.75741589  0.23899472  0.74230776    -0.02600
C546        C  0.75815589  0.74055846  0.23580921    -0.02600
C547        C  0.26545990  0.73595772  0.74019907    -0.02600
C548        C  0.18797340  0.16755060  0.14926148     0.86400
C549        C  0.17030531  0.18530108  0.12483749    -0.53800
C550        C  0.15370214  0.16703516  0.10628143     0.09300
C551        C  0.15638160  0.13304335  0.11357730     0.20300
C552        C  0.16345319  0.14791963  0.16543229    -0.54600
C553        C  0.14680242  0.12974225  0.14664981     0.09400
C554        C  0.20713952  0.14350071  0.13182019    -0.54100
C555        C  0.19024756  0.12561984  0.11329905     0.10000
H556        H  0.17002795  0.21006751  0.12316399     0.14500
H557        H  0.14352376  0.11844486  0.09774140     0.00300
H558        H  0.15946933  0.14905209  0.18946634     0.14800
H559        H  0.23098927  0.13855432  0.13523197     0.14600
C560        C  0.18094736  0.16329088  0.81968727     0.86400
C561        C  0.15830531  0.14312797  0.80221376    -0.53800
C562        C  0.13825286  0.12745157  0.81999310     0.09300
C563        C  0.14261776  0.13303424  0.85368131     0.20300
C564        C  0.16119083  0.18360605  0.84013803    -0.54600
C565        C  0.14124310  0.16780456  0.85768920     0.09400
C566        C  0.19618824  0.14055969  0.84224806    -0.54100
C567        C  0.17595414  0.12426983  0.85982241     0.10000
H568        H  0.15822688  0.14143220  0.77785553     0.14500
H569        H  0.12573206  0.12048617  0.86766305     0.00300
H570        H  0.16316665  0.20833933  0.84100555     0.14800
H571        H  0.22043262  0.13808348  0.84522819     0.14600
C572        C  0.83456450  0.15765223  0.15620157     0.86400
C573        C  0.81656653  0.13199441  0.14044253    -0.53800
C574        C  0.83448812  0.11110831  0.12608988     0.09300
C575        C  0.86864668  0.11851165  0.12760823     0.20300
C576        C  0.85807015  0.14128596  0.17621370    -0.54600
C577        C  0.87589392  0.12109775  0.16113490     0.09400
C578        C  0.85387255  0.17174149  0.13020905    -0.54100
C579        C  0.87170992  0.15113099  0.11529870     0.10000
H580        H  0.79187306  0.13066831  0.14036788     0.14500
H581        H  0.88349033  0.10184137  0.11586288     0.00300
H582        H  0.86121530  0.14631213  0.19990825     0.14800
H583        H  0.85360878  0.19539326  0.12316201     0.14600
C584        C  0.18527727  0.81908429  0.16586181     0.86400
C585        C  0.16150711  0.84201772  0.17830472    -0.53800
C586        C  0.14795558  0.85973237  0.15681831     0.09300
C587        C  0.15868056  0.85255473  0.12484246     0.20300
C588        C  0.16674237  0.80070681  0.14245175    -0.54600
C589        C  0.15272145  0.81824276  0.12108742     0.09400
C590        C  0.20729985  0.83899040  0.14670221    -0.54100
C591        C  0.19323370  0.85606341  0.12515242     0.10000
H592        H  0.15332760  0.84304189  0.20098974     0.14500
H593        H  0.14777096  0.86719175  0.10752689     0.00300
H594        H  0.16530999  0.77594490  0.14271742     0.14800
H595        H  0.23185242  0.83899050  0.14955023     0.14600
C596        C  0.84511504  0.81756072  0.16357549     0.86400
C597        C  0.86348287  0.84154616  0.18131995    -0.53800
C598        C  0.88010980  0.86080766  0.16365932     0.09300
C599        C  0.87778491  0.85422509  0.13004758     0.20300
C600        C  0.82650014  0.83606119  0.14010555    -0.54600
C601        C  0.84370346  0.85520758  0.12241311     0.09400
C602        C  0.86959808  0.80120577  0.14412887    -0.54100
C603        C  0.88652420  0.82059394  0.12667501     0.10000
H604        H  0.86346031  0.84303039  0.20569311     0.14500
H605        H  0.89202068  0.86996357  0.11624838     0.00300
H606        H  0.80222374  0.83285187  0.13689151     0.14800
H607        H  0.87381181  0.77690254  0.14349430     0.14600
O608        O  0.04726590  0.96182453  0.19837777    -0.73000
O609        O  0.98463208  0.02857859  0.20612800    -0.74000
O610        O  0.98288402  0.96290861  0.20681368    -0.62600
O611        O  0.04899276  0.02715112  0.19665687    -0.71000
O612        O  0.04263025  0.02415147  0.14742575    -0.70600
O613        O  0.97528975  0.96469346  0.15747063    -0.61800
O614        O  0.97997051  0.02906486  0.15640961    -0.74400
O615        O  0.03886161  0.96015127  0.14933710    -0.73100
Cu616      Cu  0.01618487  0.99509502  0.20386452     1.04600
Cu617      Cu  0.00894115  0.99442558  0.15107486     1.04300
C618        C  0.05274898  0.95023346  0.17258331     0.93200
C619        C  0.97315759  0.03989124  0.18219833     0.92300
C620        C  0.96866958  0.95395436  0.18334384     0.84500
C621        C  0.05590402  0.03597199  0.16997918     0.90700
C622        C  0.18764645  0.81226924  0.82075443     0.86400
C623        C  0.16727127  0.83308678  0.80125066    -0.53800
C624        C  0.14752134  0.85048755  0.81741283     0.09300
C625        C  0.14970398  0.84581610  0.85141179     0.20300
C626        C  0.20317305  0.83472537  0.84290256    -0.54600
C627        C  0.18310069  0.85202728  0.85896416     0.09400
C628        C  0.16562765  0.79380920  0.84093844    -0.54100
C629        C  0.14566422  0.81143077  0.85671249     0.10000
H630        H  0.16887622  0.83443940  0.77690169     0.14500
H631        H  0.13342759  0.86008862  0.86440351     0.00300
H632        H  0.22737777  0.83788944  0.84579849     0.14800
H633        H  0.16560578  0.76901963  0.84225963     0.14600
O634        O  0.23934488  0.95396258  0.01963243    -0.73000
O635        O  0.22766690  0.02015214  0.95600734    -0.74000
O636        O  0.23451424  0.01900606  0.02023536    -0.62600
O637        O  0.23242030  0.95468793  0.95548737    -0.71000
O638        O  0.18209210  0.95268331  0.96058048    -0.70600
O639        O  0.18453763  0.01382688  0.02547889    -0.61800
O640        O  0.17774163  0.01688082  0.96267166    -0.74400
O641        O  0.18908174  0.94996799  0.02377346    -0.73100
Cu642      Cu  0.23536945  0.98704807  0.98758082     1.04600
Cu643      Cu  0.18175167  0.98314603  0.99324536     1.04300
C644        C  0.21578521  0.94192805  0.03189263     0.93200
C645        C  0.20070053  0.02936009  0.94980757     0.92300
C646        C  0.20958265  0.02600310  0.03347249     0.84500
C647        C  0.20652656  0.94408085  0.94762129     0.90700
C648        C  0.84222658  0.15689089  0.81176613     0.86400
C649        C  0.82461857  0.13846697  0.83621613    -0.53800
C650        C  0.84288780  0.12247670  0.85559521     0.09300
C651        C  0.87692456  0.12617011  0.84874926     0.20300
C652        C  0.86496232  0.17669210  0.82980022    -0.54600
C653        C  0.88284563  0.16049605  0.84908176     0.09400
C654        C  0.86204144  0.13193834  0.79651725    -0.54100
C655        C  0.88048179  0.11626950  0.81591074     0.10000
H656        H  0.79996779  0.13847305  0.83816775     0.14500
H657        H  0.89193809  0.11349916  0.86450661     0.00300
H658        H  0.86622588  0.20142181  0.82794860     0.14800
H659        H  0.85983504  0.12440685  0.77360497     0.14600
O660        O  0.97426577  0.20654975  0.02023747    -0.73000
O661        O  0.03931034  0.21752794  0.95652977    -0.74000
O662        O  0.97428846  0.21151969  0.95597716    -0.62600
O663        O  0.03954402  0.21240096  0.02046562    -0.71000
O664        O  0.04295153  0.16193654  0.01649974    -0.70600
O665        O  0.98041272  0.16134849  0.95154137    -0.61800
O666        O  0.04415207  0.16701232  0.95415102    -0.74400
O667        O  0.97828116  0.15632915  0.01505219    -0.73100
Cu668      Cu  0.00658574  0.21386144  0.98853699     1.04600
Cu669      Cu  0.01146004  0.15999378  0.98432599     1.04300
C670        C  0.96573036  0.17950749  0.02732925     0.93200
C671        C  0.05219612  0.19373096  0.94579472     0.92300
C672        C  0.96774091  0.18618781  0.94319648     0.84500
C673        C  0.05224653  0.18710810  0.02766138     0.90700
C674        C  0.84521611  0.81208844  0.82132505     0.86400
C675        C  0.83016301  0.83870236  0.83850389    -0.53800
C676        C  0.85001333  0.85706206  0.85355356     0.09300
C677        C  0.88315646  0.84620661  0.85143620     0.20300
C678        C  0.87034506  0.82707339  0.80180451    -0.54600
C679        C  0.89029443  0.84480443  0.81763184     0.09400
C680        C  0.86312588  0.79473530  0.84625406    -0.54100
C681        C  0.88270203  0.81288236  0.86195716     0.10000
H682        H  0.80575726  0.84266801  0.83866891     0.14500
H683        H  0.89928183  0.86040602  0.86456368     0.00300
H684        H  0.87231423  0.82347247  0.77773755     0.14800
H685        H  0.86063070  0.77085398  0.85209540     0.14600
O686        O  0.98350023  0.76541252  0.96233937    -0.73000
O687        O  0.05055775  0.76769347  0.02452622    -0.74000
O688        O  0.98528137  0.76951361  0.02675055    -0.62600
O689        O  0.04833691  0.76351413  0.96050273    -0.71000
O690        O  0.04671541  0.81411585  0.95643189    -0.70600
O691        O  0.98900291  0.82010522  0.02493509    -0.61800
O692        O  0.05277451  0.81808353  0.01894841    -0.74400
O693        O  0.98313784  0.81618267  0.96196189    -0.73100
Cu694      Cu  0.01683897  0.76462916  0.99372295     1.04600
Cu695      Cu  0.01795087  0.81878388  0.99049374     1.04300
C696        C  0.97274513  0.79070950  0.95256059     0.93200
C697        C  0.06279944  0.79345102  0.03071949     0.92300
C698        C  0.97777860  0.79590370  0.03661879     0.84500
C699        C  0.05665177  0.78827848  0.94754779     0.90700
O700        O  0.79413132  0.02135120  0.95640561    -0.73000
O701        O  0.79373705  0.95019946  0.01639580    -0.74000
O702        O  0.78935757  0.01533921  0.02079639    -0.62600
O703        O  0.79738536  0.95614902  0.95216802    -0.71000
O704        O  0.84766152  0.96076523  0.95376746    -0.70600
O705        O  0.83975840  0.01571887  0.02465803    -0.61800
O706        O  0.84414679  0.95243435  0.01660519    -0.74400
O707        O  0.84419533  0.02456167  0.96178494    -0.73100
Cu708      Cu  0.79175501  0.98570546  0.98627741     1.04600
Cu709      Cu  0.84555159  0.98851598  0.98928403     1.04300
C710        C  0.81958833  0.03426718  0.94998458     0.93200
C711        C  0.81945050  0.93996842  0.02558447     0.92300
C712        C  0.81356049  0.02408890  0.03408111     0.84500
C713        C  0.82375898  0.94923143  0.94207086     0.90700
O714        O  0.98005553  0.01334751  0.77121060    -0.73000
O715        O  0.05134739  0.95506712  0.76798145    -0.74000
O716        O  0.98726275  0.94809527  0.76867204    -0.62600
O717        O  0.04477278  0.02039590  0.77010303    -0.71000
O718        O  0.04304925  0.01987945  0.82002274    -0.70600
O719        O  0.99054084  0.94534725  0.81837980    -0.61800
O720        O  0.05345342  0.95580291  0.81790929    -0.74400
O721        O  0.97997330  0.00920741  0.82089750    -0.73100
Cu722      Cu  0.01585304  0.98438015  0.76763909     1.04600
Cu723      Cu  0.01678672  0.98255414  0.82094711     1.04300
C724        C  0.96859696  0.02021313  0.79682368     0.93200
C725        C  0.06314176  0.94596066  0.79266954     0.92300
C726        C  0.98082456  0.93467665  0.79348529     0.84500
C727        C  0.05233516  0.03184876  0.79542641     0.90700
C728        C  0.75922253  0.74197012  0.74276229    -0.02600
C729        C  0.84028798  0.88339822  0.87241433    -0.00200
C730        C  0.81462611  0.88015720  0.89116067    -0.12100
C731        C  0.80800839  0.90183665  0.91336287     0.02000
C732        C  0.82711333  0.92756630  0.91683115    -0.00300
C733        C  0.85120157  0.93201878  0.89652876    -0.12100
C734        C  0.85760953  0.91057227  0.87418684     0.01900
H735        H  0.80093857  0.85955551  0.89001705     0.14900
H736        H  0.86524296  0.95236585  0.89822310     0.14900
C737        C  0.88130432  0.91800550  0.85286147     0.36500
C738        C  0.78305284  0.89572471  0.93374009     0.36400
N739        N  0.90020205  0.92516979  0.83608161    -0.43800
N740        N  0.76308850  0.89074479  0.95010118    -0.43800
C741        C  0.90252006  0.80207431  0.88677794    -0.00200
C742        C  0.92743917  0.78305117  0.88025451    -0.12100
C743        C  0.94992466  0.77733367  0.90201727     0.02000
C744        C  0.94773157  0.79127824  0.93052296    -0.00300
C745        C  0.92210052  0.80890858  0.93738844    -0.12100
C746        C  0.89937840  0.81394461  0.91606943     0.01900
H747        H  0.93007734  0.77389355  0.85776556     0.14900
H748        H  0.92000887  0.81911818  0.95951311     0.14900
C749        C  0.87279855  0.83071985  0.92540666     0.36500
C750        C  0.97595324  0.75892505  0.89397850     0.36400
N751        N  0.85164987  0.84359211  0.93431497    -0.43800
N752        N  0.99683403  0.74416084  0.88757768    -0.43800
C753        C  0.91657366  0.86195608  0.80466107    -0.00200
C754        C  0.94409616  0.86146286  0.82065357    -0.12100
C755        C  0.96662873  0.88344572  0.81531267     0.02000
C756        C  0.96155685  0.90687091  0.79402634    -0.00300
C757        C  0.93596864  0.90500997  0.77530651    -0.12100
C758        C  0.91352284  0.88263547  0.78032004     0.01900
H759        H  0.94736193  0.84477913  0.83846158     0.14900
H760        H  0.93237513  0.92236009  0.75820797     0.14900
C761        C  0.88667340  0.88329309  0.76177748     0.36500
C762        C  0.99471500  0.88177768  0.83205968     0.36400
N763        N  0.86547099  0.88393611  0.74642250    -0.43800
N764        N  0.01750593  0.88073518  0.84500511    -0.43800
C765        C  0.82198712  0.79400365  0.80235968    -0.00200
C766        C  0.81974749  0.76198769  0.80427418    -0.12100
C767        C  0.79943037  0.74527918  0.78641190     0.02000
C768        C  0.77990934  0.76029947  0.76535187    -0.00300
C769        C  0.78057123  0.79258159  0.76552642    -0.12100
C770        C  0.80207980  0.80908092  0.78209880     0.01900
H771        H  0.83462459  0.74914692  0.81878531     0.14900
H772        H  0.76467708  0.80567800  0.75229092     0.14900
C773        C  0.80310430  0.84175983  0.77734631     0.36500
C774        C  0.80092605  0.71240252  0.78937071     0.21200
N775        N  0.80362924  0.86792200  0.77346138    -0.43800
N776        N  0.80290615  0.68617286  0.79223955    -0.43800
C777        C  0.90496419  0.17391486  0.87041320    -0.00200
C778        C  0.89436286  0.18524276  0.89806283    -0.12100
C779        C  0.91466499  0.19100130  0.92177492     0.02000
C780        C  0.94600779  0.18511071  0.91792353    -0.00300
C781        C  0.95662622  0.17493097  0.88991153    -0.12100
C782        C  0.93647252  0.16966950  0.86615417     0.01900
H783        H  0.87006572  0.18783065  0.90170319     0.14900
H784        H  0.98068398  0.17023307  0.88685794     0.14900
C785        C  0.94856050  0.15921086  0.83778375     0.36500
C786        C  0.90264239  0.20040450  0.95054483     0.36400
N787        N  0.95844940  0.15115227  0.81500694    -0.43800
N788        N  0.89308930  0.20779262  0.97369217    -0.43800
C789        C  0.82143967  0.06001233  0.92805943    -0.00200
C790        C  0.80442972  0.05886314  0.90134967    -0.12100
C791        C  0.80986031  0.07977551  0.87777118     0.02000
C792        C  0.83213829  0.10288393  0.88107064    -0.00300
C793        C  0.84760468  0.10515136  0.90852558    -0.12100
C794        C  0.84271727  0.08400729  0.93172695     0.01900
H795        H  0.78829884  0.04039273  0.89808405     0.14900
H796        H  0.86447465  0.12300342  0.91153249     0.14900
C797        C  0.86042425  0.08724473  0.95884775     0.36500
C798        C  0.79420380  0.07532755  0.84964931     0.36400
N799        N  0.87484210  0.08990588  0.98041256    -0.43800
N800        N  0.78173254  0.07170209  0.82705648    -0.43800
C801        C  0.90012858  0.08984326  0.80746307    -0.00200
C802        C  0.90066121  0.06452199  0.82693240    -0.12100
C803        C  0.92184085  0.04100491  0.82322194     0.02000
C804        C  0.94285077  0.04207607  0.79906596    -0.00300
C805        C  0.94088916  0.06624015  0.77825789    -0.12100
C806        C  0.92004036  0.09019788  0.78239103     0.01900
H807        H  0.88488952  0.06340914  0.84573920     0.14900
H808        H  0.95694717  0.06741647  0.75969736     0.14900
C809        C  0.92153233  0.11585009  0.76196795     0.36500
C810        C  0.92159350  0.01631312  0.84488963     0.36400
N811        N  0.92324107  0.13635266  0.74554027    -0.43800
N812        N  0.92137413  0.99670676  0.86243098    -0.43800
C813        C  0.19214881  0.87599193  0.88060895    -0.00200
C814        C  0.17709532  0.90415496  0.87898633    -0.12100
C815        C  0.18276717  0.92709010  0.89979320     0.02000
C816        C  0.20395516  0.92207284  0.92297695    -0.00300
C817        C  0.21985207  0.89431610  0.92435022    -0.12100
C818        C  0.21382826  0.87104876  0.90355486     0.01900
H819        H  0.16024933  0.90817300  0.86178443     0.14900
H820        H  0.23561349  0.89019101  0.94264357     0.14900
C821        C  0.22807165  0.84163400  0.90788445     0.36500
C822        C  0.16628126  0.95555125  0.89700143     0.36400
N823        N  0.23929383  0.81797718  0.91145258    -0.43800
N824        N  0.15304052  0.97830174  0.89476582    -0.43800
C825        C  0.12758146  0.87411990  0.80425620    -0.00200
C826        C  0.13768358  0.90455283  0.80427181    -0.12100
C827        C  0.11728479  0.92861036  0.79921737     0.02000
C828        C  0.08662637  0.92209076  0.79264965    -0.00300
C829        C  0.07709664  0.89158137  0.79029977    -0.12100
C830        C  0.09726148  0.86757814  0.79633702     0.01900
H831        H  0.16118047  0.90957154  0.80981791     0.14900
H832        H  0.05340604  0.88655675  0.78549865     0.14900
C833        C  0.08597917  0.83659231  0.79574796     0.36500
C834        C  0.12789439  0.95968912  0.80229139     0.36400
N835        N  0.07680034  0.81178911  0.79545361    -0.43800
N836        N  0.13644296  0.98456853  0.80489768    -0.43800
C837        C  0.07734445  0.78798233  0.92150274    -0.00200
C838        C  0.10595198  0.77385667  0.92349309    -0.12100
C839        C  0.12833868  0.77942618  0.90147535     0.02000
C840        C  0.12189890  0.79947569  0.87730239    -0.00300
C841        C  0.09255592  0.81160140  0.87446325    -0.12100
C842        C  0.07024417  0.80567810  0.89598757     0.01900
H843        H  0.11143880  0.76017701  0.94312107     0.14900
H844        H  0.08731861  0.82680926  0.85596898     0.14900
C845        C  0.04022906  0.81850644  0.89184953     0.36500
C846        C  0.15826400  0.76644369  0.90555458     0.36400
N847        N  0.01599335  0.82840555  0.88892494    -0.43800
N848        N  0.18224141  0.75598399  0.90875208    -0.43800
C849        C  0.90029586  0.88510980  0.17518588    -0.00200
C850        C  0.92928168  0.87710504  0.18578557    -0.12100
C851        C  0.95155564  0.89958418  0.19054649     0.02000
C852        C  0.94458262  0.93058995  0.18520358    -0.00300
C853        C  0.91514873  0.93863246  0.17598174    -0.12100
C854        C  0.89306886  0.91617803  0.17083626     0.01900
H855        H  0.93515227  0.85315561  0.18830287     0.14900
H856        H  0.90989387  0.96241073  0.17132566     0.14900
C857        C  0.86363108  0.92544812  0.15972118     0.36500
C858        C  0.98218431  0.89013017  0.19775750     0.36400
N859        N  0.84009551  0.93306031  0.15081018    -0.43800
N860        N  0.00682624  0.88260992  0.20319341    -0.43800
C861        C  0.83265078  0.87283608  0.09562227    -0.00200
C862        C  0.85154466  0.87331019  0.07007680    -0.12100
C863        C  0.84649812  0.89364932  0.04634740     0.02000
C864        C  0.82158066  0.91406769  0.04734028    -0.00300
C865        C  0.80077127  0.91155746  0.07138262    -0.12100
C866        C  0.80608941  0.89117292  0.09547981     0.01900
H867        H  0.87115850  0.85829744  0.06897757     0.14900
H868        H  0.78133155  0.92679679  0.07227566     0.14900
C869        C  0.78490711  0.89096223  0.12034294     0.36500
C870        C  0.86782852  0.89339953  0.02150890     0.36400
N871        N  0.76768526  0.89078483  0.14010447    -0.43800
N872        N  0.88505266  0.89323046  0.00174700    -0.43800
C873        C  0.91077002  0.81073995  0.10552190    -0.00200
C874        C  0.93905013  0.82557329  0.10681846    -0.12100
C875        C  0.96166641  0.81963373  0.08542828     0.02000
C876        C  0.95596086  0.79905602  0.06176662    -0.00300
C877        C  0.92819353  0.78321372  0.06109604    -0.12100
C878        C  0.90557574  0.78889496  0.08274564     0.01900
H879        H  0.94343109  0.84195602  0.12454894     0.14900
H880        H  0.92367842  0.76737670  0.04293402     0.14900
C881        C  0.87668633  0.77341051  0.07999238     0.36500
C882        C  0.99109764  0.83389608  0.08872435     0.36400
N883        N  0.85354658  0.76093426  0.07786104    -0.43800
N884        N  0.01508977  0.84451473  0.09109363    -0.43800
C885        C  0.20873661  0.87620283  0.10298665    -0.00200
C886        C  0.21166590  0.90730526  0.10972514    -0.12100
C887        C  0.21728375  0.92879499  0.08688762     0.02000
C888        C  0.21873571  0.91937794  0.05660075    -0.00300
C889        C  0.21824713  0.88800574  0.05012477    -0.12100
C890        C  0.21395988  0.86636698  0.07321400     0.01900
H891        H  0.20795832  0.91498870  0.13261472     0.14900
H892        H  0.21991633  0.88050234  0.02695965     0.14900
C893        C  0.21386125  0.83426629  0.06580884     0.36500
C894        C  0.22073864  0.96048632  0.09499587     0.36400
N895        N  0.21391821  0.80850349  0.05998307    -0.43800
N896        N  0.22419318  0.98572951  0.10184729    -0.43800
C897        C  0.12277858  0.88175380  0.16284502    -0.00200
C898        C  0.09837392  0.88288916  0.14251462    -0.12100
C899        C  0.07530791  0.90469989  0.14534830     0.02000
C900        C  0.07578135  0.92560406  0.16950303    -0.00300
C901        C  0.09948589  0.92369170  0.19057260    -0.12100
C902        C  0.12307579  0.90238302  0.18726153     0.01900
H903        H  0.09734311  0.86679139  0.12405571     0.14900
H904        H  0.10030664  0.93974969  0.20908062     0.14900
C905        C  0.14801687  0.90355271  0.20828913     0.36500
C906        C  0.05160623  0.90528708  0.12293574     0.36400
N907        N  0.16792132  0.90459474  0.22524488    -0.43800
N908        N  0.03261554  0.90659832  0.10501039    -0.43800
C909        C  0.08868492  0.79541664  0.05174954    -0.00200
C910        C  0.08795321  0.77893084  0.07887558    -0.12100
C911        C  0.10960738  0.78441521  0.10142487     0.02000
C912        C  0.13265790  0.80661708  0.09668710    -0.00300
C913        C  0.13447488  0.82120527  0.06858208    -0.12100
C914        C  0.11296846  0.81581762  0.04624767     0.01900
H915        H  0.06942822  0.76306603  0.08316207     0.14900
H916        H  0.15221313  0.83783732  0.06424045     0.14900
C917        C  0.11635046  0.83174293  0.01789215     0.36500
C918        C  0.10610199  0.76855782  0.12973533     0.36400
N919        N  0.11920516  0.84449199  0.99520656    -0.43800
N920        N  0.10325115  0.75563620  0.15232812    -0.43800
C921        C  0.89388741  0.15980441  0.09116263    -0.00200
C922        C  0.91199122  0.18609068  0.09483328    -0.12100
C923        C  0.93496683  0.19366402  0.07403559     0.02000
C924        C  0.94065024  0.17434774  0.04924419    -0.00300
C925        C  0.92199989  0.14868392  0.04515824    -0.12100
C926        C  0.89862758  0.14154857  0.06540098     0.01900
H927        H  0.90877630  0.20037232  0.11446833     0.14900
H928        H  0.92544231  0.13419721  0.02567726     0.14900
C929        C  0.87937663  0.11600444  0.05801481     0.36500
C930        C  0.95288815  0.22075922  0.07933394     0.36400
N931        N  0.86458648  0.09538945  0.05095499    -0.43800
N932        N  0.96699303  0.24266291  0.08360472    -0.43800
C933        C  0.90271958  0.10566377  0.17397151    -0.00200
C934        C  0.93051268  0.11039210  0.15928517    -0.12100
C935        C  0.95495088  0.09083767  0.16421162     0.02000
C936        C  0.95154122  0.06555220  0.18364509    -0.00300
C937        C  0.92498955  0.06296124  0.20119040    -0.12100
C938        C  0.90054850  0.08316671  0.19667394     0.01900
H939        H  0.93263559  0.12856348  0.14272243     0.14900
H940        H  0.92245005  0.04391715  0.21667538     0.14900
C941        C  0.87268542  0.07854536  0.21337412     0.36500
C942        C  0.98317718  0.09734943  0.14888361     0.36400
N943        N  0.85038697  0.07487095  0.22685886    -0.43800
N944        N  0.00560181  0.10376652  0.13673011    -0.43800
C945        C  0.81211084  0.04348859  0.06105393    -0.00200
C946        C  0.83151815  0.03602288  0.08486348    -0.12100
C947        C  0.83664693  0.05654401  0.10820323     0.02000
C948        C  0.82259070  0.08554426  0.10767715    -0.00300
C949        C  0.80043435  0.09163284  0.08567137    -0.12100
C950        C  0.79498582  0.07072178  0.06239731     0.01900
H951        H  0.84382459  0.01451649  0.08451437     0.14900
H952        H  0.78923594  0.11370720  0.08519079     0.14900
C953        C  0.77397279  0.07900448  0.03886699     0.36500
C954        C  0.85715545  0.04725549  0.13177154     0.36400
N955        N  0.75704640  0.08567963  0.02007360    -0.43800
N956        N  0.87364353  0.03875257  0.15020576    -0.43800
C957        C  0.18438498  0.10064208  0.88321527    -0.00200
C958        C  0.16620239  0.09812993  0.90926618    -0.12100
C959        C  0.17165406  0.07584839  0.93131420     0.02000
C960        C  0.19566075  0.05467276  0.92769794    -0.00300
C961        C  0.21429928  0.05725005  0.90202397    -0.12100
C962        C  0.20874909  0.07962742  0.87978312     0.01900
H963        H  0.14749743  0.11378130  0.91280382     0.14900
H964        H  0.23263762  0.04099595  0.89875931     0.14900
C965        C  0.22723395  0.07897522  0.85290821     0.36500
C966        C  0.15272605  0.07601079  0.95797615     0.36400
N967        N  0.24208530  0.07840940  0.83136234    -0.43800
N968        N  0.13763536  0.07626633  0.97936890    -0.43800
C969        C  0.07682503  0.19619036  0.92355312    -0.00200
C970        C  0.10622836  0.18770873  0.93241194    -0.12100
C971        C  0.12867150  0.18156438  0.91090854     0.02000
C972        C  0.12117708  0.18228144  0.88015229    -0.00300
C973        C  0.09259507  0.19327596  0.87124313    -0.12100
C974        C  0.07053437  0.20084112  0.89284608     0.01900
H975        H  0.11126596  0.18467118  0.95610590     0.14900
H976        H  0.08706314  0.19454888  0.84752138     0.14900
C977        C  0.04116729  0.21179692  0.88313182     0.36500
C978        C  0.15902561  0.17403468  0.92083924     0.36400
N979        N  0.01775077  0.22104698  0.87548457    -0.43800
N980        N  0.18341801  0.16821051  0.92878107    -0.43800
C981        C  0.11520605  0.10545670  0.80868555    -0.00200
C982        C  0.08518379  0.10787032  0.81935718    -0.12100
C983        C  0.06372858  0.08497609  0.81347124     0.02000
C984        C  0.07230802  0.05894803  0.79685131    -0.00300
C985        C  0.10168038  0.05741604  0.78448345    -0.12100
C986        C  0.12322048  0.08032256  0.79039782     0.01900
H987        H  0.07871043  0.12733271  0.83301129     0.14900
H988        H  0.10835479  0.03741062  0.77172500     0.14900
C989        C  0.15395950  0.07616913  0.77955604     0.36500
C990        C  0.03298792  0.08864419  0.82459694     0.36400
N991        N  0.17862389  0.07285789  0.77091490    -0.43800
N992        N  0.00827337  0.09163631  0.83322935    -0.43800
C993        C  0.20129436  0.09796533  0.09768226    -0.00200
C994        C  0.18343354  0.07158142  0.10064992    -0.12100
C995        C  0.18655086  0.04737866  0.08075084     0.02000
C996        C  0.20900495  0.04872087  0.05790755    -0.00300
C997        C  0.22928545  0.07361660  0.05710391    -0.12100
C998        C  0.22541370  0.09841898  0.07668491     0.01900
H999        H  0.16550566  0.07066245  0.11748833     0.14900
H1000       H  0.24678245  0.07470641  0.03986016     0.14900
C1001       C  0.24474463  0.12487501  0.07311998     0.36500
C1002       C  0.16553487  0.02206920  0.08387373     0.36400
N1003       N  0.26031151  0.14605547  0.07027731    -0.43800
N1004       N  0.14858301  0.00194170  0.08644560    -0.43800
C1005       C  0.07869619  0.06060950  0.16478411    -0.00200
C1006       C  0.10041183  0.06727038  0.18698967    -0.12100
C1007       C  0.12269128  0.08993921  0.18232233     0.02000
C1008       C  0.12216502  0.10792515  0.15574818    -0.00300
C1009       C  0.09907111  0.10245108  0.13471674    -0.12100
C1010       C  0.07893981  0.07808271  0.13791056     0.01900
H1011       H  0.10086639  0.05380863  0.20750766     0.14900
H1012       H  0.09720524  0.11662900  0.11477993     0.14900
C1013       C  0.05974958  0.07131184  0.11242303     0.36500
C1014       C  0.14646071  0.09278139  0.20444842     0.36400
N1015       N  0.04475949  0.06589440  0.09174878    -0.43800
N1016       N  0.16542710  0.09487031  0.22233567    -0.43800
C1017       C  0.13113548  0.17795442  0.08395476    -0.00200
C1018       C  0.10680626  0.19637127  0.09364062    -0.12100
C1019       C  0.08107522  0.20077042  0.07539145     0.02000
C1020       C  0.07952574  0.18641315  0.04707568    -0.00300
C1021       C  0.10463162  0.16953172  0.03683238    -0.12100
C1022       C  0.13031691  0.16538277  0.05481262     0.01900
H1023       H  0.10704182  0.20570042  0.11620537     0.14900
H1024       H  0.10395694  0.15906416  0.01474992     0.14900
C1025       C  0.15532149  0.14766020  0.04292344     0.36500
C1026       C  0.05577903  0.21801757  0.08718743     0.36400
N1027       N  0.17519195  0.13346077  0.03308168    -0.43800
N1028       N  0.03560472  0.23183050  0.09694474    -0.43800
C1029       C  0.24541124  0.75561402  0.76222547    -0.00200
C1030       C  0.21341762  0.75173671  0.76367985    -0.12100
C1031       C  0.19491006  0.77011021  0.78163587     0.02000
C1032       C  0.20794694  0.79169496  0.80140474    -0.00300
C1033       C  0.23986267  0.79365181  0.80234755    -0.12100
C1034       C  0.25841808  0.77615704  0.78349771     0.01900
H1035       H  0.20204513  0.73428744  0.75077353     0.14900
H1036       H  0.25118743  0.80922078  0.81731049     0.14900
C1037       C  0.29076535  0.78146192  0.78618524     0.36500
C1038       C  0.16231641  0.76628531  0.77886175     0.36400
N1039       N  0.31627919  0.78726322  0.78926435    -0.43800
N1040       N  0.13625089  0.76325312  0.77648978    -0.43800
C1041       C  0.78277942  0.76049402  0.21864863    -0.00200
C1042       C  0.78249930  0.79286658  0.21995490    -0.12100
C1043       C  0.80208443  0.81106001  0.20254356     0.02000
C1044       C  0.82486003  0.79761311  0.18431837    -0.00300
C1045       C  0.82833217  0.76563633  0.18641322    -0.12100
C1046       C  0.80812061  0.74728975  0.20319419     0.01900
H1047       H  0.76705214  0.80489207  0.23458708     0.14900
H1048       H  0.84635422  0.75407236  0.17460765     0.14900
C1049       C  0.81329080  0.71468496  0.20206240     0.36500
C1050       C  0.79821053  0.84382872  0.20423251     0.36400
N1051       N  0.81812064  0.68873944  0.20046289    -0.43800
N1052       N  0.79513833  0.87004506  0.20580860    -0.43800
C1053       C  0.77920398  0.21827016  0.76197111    -0.00200
C1054       C  0.80086958  0.20049298  0.74621961    -0.12100
C1055       C  0.82149315  0.18072314  0.76055147     0.02000
C1056       C  0.82101853  0.17731094  0.79238969    -0.00300
C1057       C  0.80103744  0.19648008  0.80831561    -0.12100
C1058       C  0.78120536  0.21709457  0.79415592     0.01900
H1059       H  0.80159441  0.20207134  0.72186464     0.14900
H1060       H  0.80176734  0.19615201  0.83272097     0.14900
C1061       C  0.76654804  0.23817306  0.81447642     0.36500
C1062       C  0.84353558  0.16651130  0.74109035     0.36400
N1063       N  0.75586435  0.25484658  0.83170327    -0.43800
N1064       N  0.86064256  0.15578919  0.72432005    -0.43800
C1065       C  0.23883405  0.21940326  0.75854675    -0.00200
C1066       C  0.20672073  0.22248341  0.75960878    -0.12100
C1067       C  0.18826020  0.20425161  0.77828617     0.02000
C1068       C  0.20124267  0.18259275  0.79831628    -0.00300
C1069       C  0.23310366  0.17976635  0.79798485    -0.12100
C1070       C  0.25164892  0.19761651  0.77898534     0.01900
H1071       H  0.19521239  0.23966494  0.74643703     0.14900
H1072       H  0.24428487  0.16351757  0.81245884     0.14900
C1073       C  0.28398516  0.19224902  0.78136440     0.36500
C1074       C  0.15568181  0.20865959  0.77635675     0.36400
N1075       N  0.30958244  0.18674610  0.78421679    -0.43800
N1076       N  0.12961905  0.21216735  0.77468001    -0.43800
C1077       C  0.20303773  0.79766636  0.18740600    -0.00200
C1078       C  0.22215445  0.77631434  0.17324209    -0.12100
C1079       C  0.23982227  0.75512196  0.18909296     0.02000
C1080       C  0.24130973  0.75617273  0.22126864    -0.00300
C1081       C  0.22060682  0.77637398  0.23539787    -0.12100
C1082       C  0.20217063  0.79698339  0.21943123     0.01900
H1083       H  0.22265731  0.77559671  0.14883234     0.14900
H1084       H  0.21992533  0.77704043  0.25978356     0.14900
C1085       C  0.18399908  0.81696766  0.23783437     0.36500
C1086       C  0.25286369  0.73150008  0.17048353     0.36400
N1087       N  0.16989357  0.83226589  0.25387140    -0.43800
N1088       N  0.26226726  0.71278813  0.15461766    -0.43800
C1089       C  0.78308995  0.21973862  0.21545206    -0.00200
C1090       C  0.77854270  0.18768407  0.21612197    -0.12100
C1091       C  0.79473390  0.16775444  0.19747988     0.02000
C1092       C  0.81473261  0.17925295  0.17511372    -0.00300
C1093       C  0.81764002  0.21113928  0.17263965    -0.12100
C1094       C  0.80227272  0.23112786  0.19193693     0.01900
H1095       H  0.76203498  0.17731213  0.23097319     0.14900
H1096       H  0.83304514  0.22129155  0.15659584     0.14900
C1097       C  0.80896785  0.26313856  0.18750577     0.36500
C1098       C  0.79033647  0.13534819  0.20232089     0.36400
N1099       N  0.81613409  0.28811714  0.18256293    -0.43800
N1100       N  0.78663313  0.10944644  0.20627016    -0.43800
C1101       C  0.23634121  0.22219200  0.21686521    -0.00200
C1102       C  0.20452197  0.22492346  0.21259229    -0.12100
C1103       C  0.18907865  0.20863915  0.19034001     0.02000
C1104       C  0.20505419  0.18863112  0.17100674    -0.00300
C1105       C  0.23702621  0.18860320  0.17267862    -0.12100
C1106       C  0.25260512  0.20470923  0.19497377     0.01900
H1107       H  0.19106941  0.24036829  0.22602082     0.14900
H1108       H  0.25061268  0.17597124  0.15681149     0.14900
C1109       C  0.28530239  0.20069155  0.19560513     0.36500
C1110       C  0.15659637  0.21330920  0.18779341     0.36400
N1111       N  0.31136342  0.19672526  0.19568349    -0.43800
N1112       N  0.13061467  0.21713338  0.18568789    -0.43800
C1113       C  0.17888063  0.38623809  0.37428707    -0.00200
C1114       C  0.20434287  0.38171455  0.39296268    -0.12100
C1115       C  0.21249365  0.40339035  0.41484315     0.02000
C1116       C  0.19500700  0.43022461  0.41830932    -0.00300
C1117       C  0.17050912  0.43528037  0.39883468    -0.12100
C1118       C  0.16245750  0.41392366  0.37697586     0.01900
H1119       H  0.21707882  0.36055297  0.39146137     0.14900
H1120       H  0.15719704  0.45606165  0.40097269     0.14900
C1121       C  0.13736020  0.42182356  0.35766938     0.36500
C1122       C  0.23747012  0.39654194  0.43474617     0.36400
N1123       N  0.11705448  0.42949607  0.34299597    -0.43800
N1124       N  0.25745495  0.39104863  0.45076851    -0.43800
C1125       C  0.23069152  0.26052030  0.26161677    -0.00200
C1126       C  0.23342656  0.29282535  0.26268530    -0.12100
C1127       C  0.21380996  0.31113366  0.27993839     0.02000
C1128       C  0.19220947  0.29767455  0.29961210    -0.00300
C1129       C  0.18918294  0.26564646  0.29859765    -0.12100
C1130       C  0.20796714  0.24730575  0.28065284     0.01900
H1131       H  0.25097116  0.30462680  0.25020567     0.14900
H1132       H  0.17132906  0.25422762  0.31102117     0.14900
C1133       C  0.20252975  0.21477800  0.28249057     0.36500
C1134       C  0.21612999  0.34388227  0.27628601     0.36400
N1135       N  0.19706424  0.18899594  0.28480242    -0.43800
N1136       N  0.21792076  0.37010170  0.27319392    -0.43800
C1137       C  0.20778609  0.55045536  0.55983401    -0.00200
C1138       C  0.18838597  0.54377950  0.58401732    -0.12100
C1139       C  0.18163453  0.56568850  0.60572286     0.02000
C1140       C  0.19406906  0.59533482  0.60331845    -0.00300
C1141       C  0.21544398  0.60140571  0.58039797    -0.12100
C1142       C  0.22248839  0.57913821  0.55870797     0.01900
H1143       H  0.17760301  0.52147100  0.58541193     0.14900
H1144       H  0.22542806  0.62401826  0.57853125     0.14900
C1145       C  0.24304420  0.58696864  0.53447853     0.36500
C1146       C  0.16213661  0.55652013  0.63024762     0.36400
N1147       N  0.25960212  0.59320857  0.51509643    -0.43800
N1148       N  0.14675455  0.54755898  0.64950064    -0.43800
C1149       C  0.20705407  0.68219758  0.67782393    -0.00200
C1150       C  0.20661449  0.71426358  0.67789600    -0.12100
C1151       C  0.22474188  0.73140410  0.69736882     0.02000
C1152       C  0.24461237  0.71682870  0.71845641    -0.00300
C1153       C  0.24519781  0.68451825  0.71800607    -0.12100
C1154       C  0.22651685  0.66744856  0.69875531     0.01900
H1155       H  0.19120450  0.72677302  0.66362590     0.14900
H1156       H  0.26057054  0.67192297  0.73232294     0.14900
C1157       C  0.22775650  0.63453520  0.70138205     0.36500
C1158       C  0.22047901  0.76415397  0.69592515     0.36400
N1159       N  0.22880805  0.60818242  0.70349516    -0.43800
N1160       N  0.21602542  0.79018716  0.69437336    -0.43800
C1161       C  0.18636532  0.61321293  0.39129782    -0.00200
C1162       C  0.21180343  0.59417765  0.38660889    -0.12100
C1163       C  0.21874928  0.57039984  0.40682680     0.02000
C1164       C  0.20001624  0.56542171  0.43228962    -0.00300
C1165       C  0.17661166  0.58630407  0.43836927    -0.12100
C1166       C  0.16984475  0.61007359  0.41845982     0.01900
H1167       H  0.22491618  0.59629715  0.36600349     0.14900
H1168       H  0.16290170  0.58358266  0.45856241     0.14900
C1169       C  0.14566783  0.63057853  0.42689133     0.36500
C1170       C  0.24349115  0.55003857  0.39948661     0.36400
N1171       N  0.12610340  0.64631998  0.43477108    -0.43800
N1172       N  0.26334312  0.53373888  0.39353688    -0.43800
C1173       C  0.19828298  0.68444269  0.30069961    -0.00200
C1174       C  0.19754892  0.68197401  0.26923117    -0.12100
C1175       C  0.21757355  0.69825530  0.25063228     0.02000
C1176       C  0.23976270  0.71840716  0.26304669    -0.00300
C1177       C  0.23746272  0.72376860  0.29441516    -0.12100
C1178       C  0.21760518  0.70704018  0.31300110     0.01900
H1179       H  0.18105413  0.66765258  0.25828573     0.14900
H1180       H  0.25064965  0.74149714  0.30504810     0.14900
C1181       C  0.21712367  0.71425695  0.34469949     0.36500
C1182       C  0.21506265  0.69179945  0.21894001     0.36400
N1183       N  0.21669878  0.72007772  0.37006690    -0.43800
N1184       N  0.21159387  0.68486863  0.19410488    -0.43800
C1185       C  0.20548824  0.41717863  0.54727402    -0.00200
C1186       C  0.18449666  0.39384919  0.54153702    -0.12100
C1187       C  0.17868550  0.37102321  0.56279010     0.02000
C1188       C  0.19330556  0.37170225  0.59097013    -0.00300
C1189       C  0.21656303  0.39328293  0.59566449    -0.12100
C1190       C  0.22283032  0.41598701  0.57394986     0.01900
H1191       H  0.17195384  0.39390653  0.52054601     0.14900
H1192       H  0.22811621  0.39390768  0.61716492     0.14900
C1193       C  0.24497400  0.43934077  0.58073704     0.36500
C1194       C  0.15794563  0.34695346  0.55460439     0.36400
N1195       N  0.26270581  0.45812297  0.58608591    -0.43800
N1196       N  0.14179260  0.32774834  0.54666701    -0.43800
C1197       C  0.23890623  0.26324717  0.71839644    -0.00200
C1198       C  0.22056616  0.24956382  0.69591631    -0.12100
C1199       C  0.20232164  0.26656176  0.67607096     0.02000
C1200       C  0.19905378  0.29854523  0.67980255    -0.00300
C1201       C  0.21864224  0.31262445  0.70049401    -0.12100
C1202       C  0.23877438  0.29608102  0.71883788     0.01900
H1203       H  0.22126605  0.22495461  0.69316174     0.14900
H1204       H  0.21930352  0.33739698  0.70140819     0.14900
C1205       C  0.26052958  0.31491570  0.73449989     0.36500
C1206       C  0.19031603  0.25052772  0.65042308     0.36400
N1207       N  0.27776308  0.33110061  0.74602626    -0.43800
N1208       N  0.18120124  0.23744712  0.62973369    -0.43800
C1209       C  0.11811191  0.30549393  0.38842261    -0.00200
C1210       C  0.11990492  0.32214823  0.41516887    -0.12100
C1211       C  0.09889046  0.31732562  0.43824545     0.02000
C1212       C  0.07528155  0.29576660  0.43445327    -0.00300
C1213       C  0.07544996  0.27674888  0.40913295    -0.12100
C1214       C  0.09680355  0.28141023  0.38604359     0.01900
H1215       H  0.13694380  0.33996986  0.41746146     0.14900
H1216       H  0.05754713  0.25991364  0.40631111     0.14900
C1217       C  0.09414608  0.26359458  0.35891370     0.36500
C1218       C  0.10162742  0.33525686  0.46535067     0.36400
N1219       N  0.09200944  0.24937862  0.33712442    -0.43800
N1220       N  0.10382768  0.34951622  0.48710883    -0.43800
C1221       C  0.10756061  0.31595548  0.60836094    -0.00200
C1222       C  0.10848414  0.28829771  0.59216858    -0.12100
C1223       C  0.08704197  0.28195663  0.56951916     0.02000
C1224       C  0.06398447  0.30342923  0.56292345    -0.00300
C1225       C  0.06192568  0.32979265  0.58056015    -0.12100
C1226       C  0.08285052  0.33599336  0.60322889     0.01900
H1227       H  0.12721594  0.27256987  0.59565045     0.14900
H1228       H  0.04388060  0.34608567  0.57638285     0.14900
C1229       C  0.07727761  0.36294309  0.62090458     0.36500
C1230       C  0.09079439  0.25460549  0.55187945     0.36400
N1231       N  0.07120609  0.38481757  0.63412361    -0.43800
N1232       N  0.09387496  0.23271853  0.53765535    -0.43800
C1233       C  0.06010108  0.41748552  0.29423703    -0.00200
C1234       C  0.05255449  0.39470122  0.31522703    -0.12100
C1235       C  0.07269899  0.37087849  0.32175889     0.02000
C1236       C  0.10144163  0.36964460  0.30739311    -0.00300
C1237       C  0.10785314  0.39079247  0.28432064    -0.12100
C1238       C  0.08750985  0.41471359  0.27773104     0.01900
H1239       H  0.03112751  0.39610076  0.32738734     0.14900
H1240       H  0.12984375  0.39017334  0.27315808     0.14900
C1241       C  0.09676496  0.43775528  0.25628564     0.36500
C1242       C  0.06305375  0.34839132  0.34359502     0.36400
N1243       N  0.10429183  0.45630875  0.23919580    -0.43800
N1244       N  0.05413627  0.33086738  0.36106259    -0.43800
C1245       C  0.07862092  0.55143490  0.29771223    -0.00200
C1246       C  0.09957988  0.54585978  0.32074931    -0.12100
C1247       C  0.12124039  0.56770475  0.32871618     0.02000
C1248       C  0.12230979  0.59601246  0.31344539    -0.00300
C1249       C  0.10296630  0.60063033  0.28869637    -0.12100
C1250       C  0.08090200  0.57880293  0.28097252     0.01900
H1251       H  0.09842615  0.52453860  0.33326743     0.14900
H1252       H  0.10368239  0.62223053  0.27666347     0.14900
C1253       C  0.05920648  0.58630620  0.25779264     0.36500
C1254       C  0.14218960  0.55965802  0.35226250     0.36400
N1255       N  0.04167589  0.59239954  0.23935523    -0.43800
N1256       N  0.15839372  0.55143355  0.37104188    -0.43800
C1257       C  0.11675271  0.61060255  0.67196714    -0.00200
C1258       C  0.12231756  0.59024719  0.69599769    -0.12100
C1259       C  0.10109542  0.56716564  0.70336751     0.02000
C1260       C  0.07400740  0.56470910  0.68660811    -0.00300
C1261       C  0.06727678  0.58713525  0.66526122    -0.12100
C1262       C  0.08798507  0.61001851  0.65801051     0.01900
H1263       H  0.14415798  0.59073698  0.70728885     0.14900
H1264       H  0.04585105  0.58617181  0.65339975     0.14900
C1265       C  0.07838700  0.63245758  0.63624984     0.36500
C1266       C  0.10868893  0.54495737  0.72618015     0.36400
N1267       N  0.06889619  0.64978319  0.61898763    -0.43800
N1268       N  0.11474749  0.52715061  0.74450642    -0.43800
C1269       C  0.08313703  0.43392572  0.68657835    -0.00200
C1270       C  0.10578639  0.44136763  0.66545682    -0.12100
C1271       C  0.12914344  0.42091870  0.65855356     0.02000
C1272       C  0.13009817  0.39206186  0.67277000    -0.00300
C1273       C  0.10934411  0.38590953  0.69629666    -0.12100
C1274       C  0.08595203  0.40668511  0.70337398     0.01900
H1275       H  0.10447013  0.46286721  0.65327048     0.14900
H1276       H  0.10994209  0.36392450  0.70760824     0.14900
C1277       C  0.06381200  0.39840524  0.72603028     0.36500
C1278       C  0.15114493  0.43012710  0.63614159     0.36400
N1279       N  0.04609685  0.39179576  0.74426084    -0.43800
N1280       N  0.16829911  0.43856433  0.61814490    -0.43800
C1281       C  0.12822904  0.67477284  0.59134144    -0.00200
C1282       C  0.12586206  0.65668340  0.56549361    -0.12100
C1283       C  0.10361253  0.66239333  0.54374712     0.02000
C1284       C  0.08286659  0.68688859  0.54740264    -0.00300
C1285       C  0.08674069  0.70659187  0.57200250    -0.12100
C1286       C  0.10905960  0.70071716  0.59398586     0.01900
H1287       H  0.14096415  0.63728269  0.56265829     0.14900
H1288       H  0.07109828  0.72549891  0.57509190     0.14900
C1289       C  0.10958498  0.71986761  0.62033797     0.36500
C1290       C  0.10251570  0.64235679  0.51802007     0.36400
N1291       N  0.10992164  0.73523927  0.64146346    -0.43800
N1292       N  0.10162863  0.62615814  0.49752687    -0.43800
C1293       C  0.10894127  0.68171699  0.37222528    -0.00200
C1294       C  0.11681410  0.70199246  0.39536650    -0.12100
C1295       C  0.09579108  0.70903295  0.41817684     0.02000
C1296       C  0.06656299  0.69564029  0.41766901    -0.00300
C1297       C  0.05782411  0.67822440  0.39274595    -0.12100
C1298       C  0.07863376  0.67155933  0.36988884     0.01900
H1299       H  0.14008897  0.71011944  0.39707054     0.14900
H1300       H  0.03494894  0.66888210  0.39169436     0.14900
C1301       C  0.06818762  0.65468982  0.34411534     0.36500
C1302       C  0.10580635  0.72699686  0.44345275     0.36400
N1303       N  0.05906027  0.64187941  0.32330060    -0.43800
N1304       N  0.11384004  0.74127159  0.46380377    -0.43800
C1305       C  0.89483171  0.67763452  0.59671104    -0.00200
C1306       C  0.91870295  0.69740646  0.60488240    -0.12100
C1307       C  0.94291745  0.70341578  0.58483605     0.02000
C1308       C  0.94348782  0.68904757  0.55649801    -0.00300
C1309       C  0.91886997  0.67077328  0.54792335    -0.12100
C1310       C  0.89457499  0.66530683  0.56744188     0.01900
H1311       H  0.91920062  0.70689409  0.62737168     0.14900
H1312       H  0.91869703  0.66052716  0.52571707     0.14900
C1313       C  0.86959453  0.64724595  0.55631335     0.36500
C1314       C  0.96770427  0.72269595  0.59440674     0.36400
N1315       N  0.85001530  0.63301363  0.54610247    -0.43800
N1316       N  0.98763675  0.73815198  0.60198512    -0.43800
C1317       C  0.90299177  0.60893851  0.67130162    -0.00200
C1318       C  0.93000128  0.60925850  0.65447697    -0.12100
C1319       C  0.95215442  0.58681540  0.65834620     0.02000
C1320       C  0.94828103  0.56392167  0.68060386    -0.00300
C1321       C  0.92234228  0.56492929  0.69918461    -0.12100
C1322       C  0.89944530  0.58688449  0.69437386     0.01900
H1323       H  0.93322567  0.62642164  0.63706428     0.14900
H1324       H  0.91906950  0.54743504  0.71623305     0.14900
C1325       C  0.87172212  0.58469994  0.71175171     0.36500
C1326       C  0.97794399  0.58748698  0.63810017     0.36400
N1327       N  0.84947167  0.58286023  0.72567007    -0.43800
N1328       N  0.99794874  0.58832360  0.62111031    -0.43800
C1329       C  0.82588881  0.59932991  0.60513654    -0.00200
C1330       C  0.84315216  0.57247813  0.60426407    -0.12100
C1331       C  0.83831481  0.55073453  0.58202432     0.02000
C1332       C  0.81556532  0.55557189  0.56009588    -0.00300
C1333       C  0.79618966  0.58087055  0.56270172    -0.12100
C1334       C  0.80121644  0.60289325  0.58500951     0.01900
H1335       H  0.86132776  0.56897442  0.62038377     0.14900
H1336       H  0.77843034  0.58445147  0.54617596     0.14900
C1337       C  0.78279780  0.63020463  0.58465145     0.36500
C1338       C  0.85725519  0.52372056  0.58209622     0.36400
N1339       N  0.76806409  0.65212245  0.58437045    -0.43800
N1340       N  0.87227660  0.50200421  0.58192761    -0.43800
C1341       C  0.81652921  0.68699407  0.68073897    -0.00200
C1342       C  0.78458830  0.68764757  0.67795508    -0.12100
C1343       C  0.76620878  0.70505597  0.69703561     0.02000
C1344       C  0.77936832  0.72329429  0.72008209    -0.00300
C1345       C  0.81163021  0.72525913  0.72019738    -0.12100
C1346       C  0.82990844  0.70750749  0.70128505     0.01900
H1347       H  0.77315754  0.67515981  0.66047375     0.14900
H1348       H  0.82337997  0.74121251  0.73451789     0.14900
C1349       C  0.86253646  0.71144851  0.70322450     0.36500
C1350       C  0.73369790  0.70257212  0.69253752     0.36400
N1351       N  0.88864001  0.71469672  0.70483491    -0.43800
N1352       N  0.70781256  0.69991333  0.68845060    -0.43800
C1353       C  0.89092363  0.67767669  0.38938377    -0.00200
C1354       C  0.91000240  0.70323629  0.38489205    -0.12100
C1355       C  0.93198651  0.71144742  0.40642184     0.02000
C1356       C  0.93518788  0.69368529  0.43276403    -0.00300
C1357       C  0.91436107  0.67000510  0.43823650    -0.12100
C1358       C  0.89240050  0.66199677  0.41711000     0.01900
H1359       H  0.90878679  0.71586235  0.36390118     0.14900
H1360       H  0.91593889  0.65687024  0.45893725     0.14900
C1361       C  0.87171288  0.63778021  0.42524564     0.36500
C1362       C  0.95200400  0.73684837  0.40012576     0.36400
N1363       N  0.85578275  0.61843514  0.43351481    -0.43800
N1364       N  0.96788540  0.75737294  0.39507345    -0.43800
C1365       C  0.81544427  0.55537144  0.42091729    -0.00200
C1366       C  0.83845730  0.54981749  0.39976186    -0.12100
C1367       C  0.84403586  0.57006945  0.37605101     0.02000
C1368       C  0.82705155  0.59735583  0.37345480    -0.00300
C1369       C  0.80196708  0.60153021  0.39287687    -0.12100
C1370       C  0.79594053  0.58068625  0.41643439     0.01900
H1371       H  0.85256825  0.52958313  0.40199979     0.14900
H1372       H  0.78841136  0.62214819  0.39107962     0.14900
C1373       C  0.77121171  0.58711330  0.43690024     0.36500
C1374       C  0.86734763  0.56176310  0.35477338     0.36400
N1375       N  0.75132214  0.59230560  0.45324236    -0.43800
N1376       N  0.88612719  0.55402163  0.33821240    -0.43800
C1377       C  0.94971399  0.57042969  0.29461290    -0.00200
C1378       C  0.92276972  0.57175327  0.27771705    -0.12100
C1379       C  0.90043360  0.59396260  0.28389182     0.02000
C1380       C  0.90518133  0.61540301  0.30721924    -0.00300
C1381       C  0.93331414  0.61568784  0.32202188    -0.12100
C1382       C  0.95554451  0.59367827  0.31578853     0.01900
H1383       H  0.91810150  0.55403640  0.26136588     0.14900
H1384       H  0.93744529  0.63245160  0.33946898     0.14900
C1385       C  0.98409149  0.59513435  0.33175906     0.36500
C1386       C  0.87159239  0.59186144  0.26854310     0.36400
N1387       N  0.00705221  0.59624148  0.34439974    -0.43800
N1388       N  0.84843234  0.59004582  0.25633041    -0.43800
C1389       C  0.81570425  0.68826932  0.30092730    -0.00200
C1390       C  0.79601409  0.67240252  0.28159428    -0.12100
C1391       C  0.77762421  0.68718106  0.26021226     0.02000
C1392       C  0.77714592  0.71992451  0.25823226    -0.00300
C1393       C  0.79783100  0.73550543  0.27715395    -0.12100
C1394       C  0.81764086  0.72044341  0.29690736     0.01900
H1395       H  0.79598360  0.64759999  0.28228090     0.14900
H1396       H  0.79929482  0.76022278  0.27566222     0.14900
C1397       C  0.84136556  0.73906930  0.30969685     0.36500
C1398       C  0.76244136  0.66673631  0.23975077     0.36400
N1399       N  0.86026285  0.75460479  0.31940651    -0.43800
N1400       N  0.75123238  0.64917368  0.22381001    -0.43800
C1401       C  0.82707207  0.38114424  0.38422534    -0.00200
C1402       C  0.84267776  0.37929578  0.41151739    -0.12100
C1403       C  0.83745385  0.40053129  0.43423034     0.02000
C1404       C  0.81601949  0.42421747  0.42987281    -0.00300
C1405       C  0.79924481  0.42527777  0.40311335    -0.12100
C1406       C  0.80484826  0.40412415  0.38010616     0.01900
H1407       H  0.85960130  0.36154451  0.41483425     0.14900
H1408       H  0.78314401  0.44369650  0.39946398     0.14900
C1409       C  0.78941588  0.40809172  0.35175393     0.36500
C1410       C  0.85480622  0.39766476  0.46165243     0.36400
N1411       N  0.77712235  0.41154387  0.32902023    -0.43800
N1412       N  0.86888827  0.39534219  0.48348790    -0.43800
C1413       C  0.90081965  0.31105488  0.37492349    -0.00200
C1414       C  0.89278514  0.29116204  0.39859363    -0.12100
C1415       C  0.91359620  0.28441574  0.42169568     0.02000
C1416       C  0.94262507  0.29833751  0.42154600    -0.00300
C1417       C  0.95119384  0.31638545  0.39679376    -0.12100
C1418       C  0.93086523  0.32232252  0.37338574     0.01900
H1419       H  0.86982319  0.28208189  0.39980417     0.14900
H1420       H  0.97384418  0.32631477  0.39597699     0.14900
C1421       C  0.94173258  0.33950800  0.34775590     0.36500
C1422       C  0.90406070  0.26469980  0.44605771     0.36400
N1423       N  0.95110888  0.35286277  0.32721904    -0.43800
N1424       N  0.89644877  0.24871433  0.46547330    -0.43800
C1425       C  0.88830718  0.38986624  0.30465338    -0.00200
C1426       C  0.88674941  0.41737541  0.32055401    -0.12100
C1427       C  0.90734800  0.44092022  0.31489859     0.02000
C1428       C  0.93001327  0.43735743  0.29258348    -0.00300
C1429       C  0.92951826  0.41119383  0.27433525    -0.12100
C1430       C  0.90883236  0.38734659  0.28023894     0.01900
H1431       H  0.87027745  0.41991413  0.33862858     0.14900
H1432       H  0.94674729  0.40832372  0.25704220     0.14900
C1433       C  0.91110097  0.35964258  0.26284765     0.36500
C1434       C  0.90553702  0.46788450  0.33344440     0.36400
N1435       N  0.91294579  0.33745273  0.24886776    -0.43800
N1436       N  0.90413799  0.48923793  0.34864568    -0.43800
C1437       C  0.81447192  0.30166964  0.29963493    -0.00200
C1438       C  0.83089773  0.28101433  0.28165271    -0.12100
C1439       C  0.81677433  0.26100125  0.26161014     0.02000
C1440       C  0.78446905  0.26167866  0.25810330    -0.00300
C1441       C  0.76810685  0.28163939  0.27721306    -0.12100
C1442       C  0.78242305  0.30258686  0.29610735     0.01900
H1443       H  0.85554362  0.28039534  0.28340504     0.14900
H1444       H  0.74350244  0.28273754  0.27527563     0.14900
C1445       C  0.76326189  0.32668429  0.30749479     0.36500
C1446       C  0.83690716  0.23917538  0.24759897     0.36400
N1447       N  0.74713236  0.34583548  0.31576735    -0.43800
N1448       N  0.85388765  0.22185473  0.23729885    -0.43800
C1449       C  0.89452382  0.38877207  0.67261285    -0.00200
C1450       C  0.89372570  0.41754500  0.65861105    -0.12100
C1451       C  0.91721021  0.43874794  0.66271265     0.02000
C1452       C  0.94223673  0.43143487  0.68122578    -0.00300
C1453       C  0.94255988  0.40320518  0.69631405    -0.12100
C1454       C  0.91913747  0.38172104  0.69188587     0.01900
H1455       H  0.87490095  0.42327940  0.64389234     0.14900
H1456       H  0.96180934  0.39737541  0.71042677     0.14900
C1457       C  0.92210478  0.35188113  0.70549118     0.36500
C1458       C  0.91500709  0.46814562  0.64798229     0.36400
N1459       N  0.92451012  0.32789561  0.71627528    -0.43800
N1460       N  0.91350714  0.49184287  0.63644933    -0.43800
C1461       C  0.81860997  0.38299424  0.60305387    -0.00200
C1462       C  0.81006056  0.41281294  0.61104781    -0.12100
C1463       C  0.80617522  0.43549559  0.58890949     0.02000
C1464       C  0.81144882  0.42843678  0.55840824    -0.00300
C1465       C  0.81854704  0.39840462  0.55037622    -0.12100
C1466       C  0.82194868  0.37570567  0.57232705     0.01900
H1467       H  0.80801303  0.41875763  0.63462339     0.14900
H1468       H  0.82205402  0.39281332  0.52688041     0.14900
C1469       C  0.82941944  0.34522301  0.56260288     0.36500
C1470       C  0.79816934  0.46609668  0.59800849     0.36400
N1471       N  0.83497535  0.32092892  0.55403671    -0.43800
N1472       N  0.79158265  0.49060019  0.60526296    -0.43800
C1473       C  0.89608653  0.31440301  0.60572244    -0.00200
C1474       C  0.92204697  0.33286545  0.60330501    -0.12100
C1475       C  0.94286591  0.32895829  0.58006590     0.02000
C1476       C  0.93859182  0.30529282  0.55898145    -0.00300
C1477       C  0.91428066  0.28479435  0.56296036    -0.12100
C1478       C  0.89288530  0.28920327  0.58610467     0.01900
H1479       H  0.92567355  0.35128750  0.61917661     0.14900
H1480       H  0.91128646  0.26613310  0.54724780     0.14900
C1481       C  0.86733273  0.26852841  0.58798698     0.36500
C1482       C  0.96821839  0.34998521  0.57849138     0.36400
N1483       N  0.84699430  0.25172510  0.58922026    -0.43800
N1484       N  0.98813470  0.36728740  0.57739684    -0.43800
C1485       C  0.77950007  0.25976411  0.72264465    -0.00200
C1486       C  0.77904796  0.25906442  0.69078456    -0.12100
C1487       C  0.79522853  0.28011164  0.67301187     0.02000
C1488       C  0.81500687  0.30175382  0.68633272    -0.00300
C1489       C  0.81838950  0.30023627  0.71773313    -0.12100
C1490       C  0.80155395  0.27977555  0.73565399     0.01900
H1491       H  0.76583549  0.24216093  0.67886322     0.14900
H1492       H  0.83454850  0.31497966  0.72915479     0.14900
C1493       C  0.80712826  0.28130849  0.76757804     0.36500
C1494       C  0.79069901  0.27890360  0.64085802     0.36400
N1495       N  0.81267142  0.28375893  0.79287528    -0.43800
N1496       N  0.78668027  0.27806186  0.61516902    -0.43800
C1497       C  0.62135946  0.88403172  0.68249690    -0.00200
C1498       C  0.59598901  0.87480552  0.69963014    -0.12100
C1499       C  0.57297629  0.89584193  0.70717975     0.02000
C1500       C  0.57546873  0.92649203  0.69756078    -0.00300
C1501       C  0.60202759  0.93605978  0.68277903    -0.12100
C1502       C  0.62490524  0.91525685  0.67529169     0.01900
H1503       H  0.59330478  0.85089622  0.70556858     0.14900
H1504       H  0.60427241  0.95974656  0.67585498     0.14900
C1505       C  0.65153152  0.92668948  0.65982684     0.36500
C1506       C  0.54631131  0.88514911  0.72306986     0.36400
N1507       N  0.67273032  0.93666710  0.64777890    -0.43800
N1508       N  0.52505971  0.87649533  0.73600460    -0.43800
C1509       C  0.68348373  0.88210493  0.59949155    -0.00200
C1510       C  0.66149472  0.88571385  0.57694574    -0.12100
C1511       C  0.66385913  0.90855171  0.55524040     0.02000
C1512       C  0.69069466  0.92634488  0.55302367    -0.00300
C1513       C  0.71398424  0.92138024  0.57411998    -0.12100
C1514       C  0.71020960  0.90028146  0.59784611     0.01900
H1515       H  0.64136963  0.87141117  0.57671842     0.14900
H1516       H  0.73445069  0.93524623  0.57311004     0.14900
C1517       C  0.73294090  0.89977844  0.62118655     0.36500
C1518       C  0.63716988  0.91418403  0.53716303     0.36400
N1519       N  0.75111992  0.89966416  0.63996861    -0.43800
N1520       N  0.61514707  0.91914982  0.52379786    -0.43800
C1521       C  0.61715380  0.81015878  0.60543233    -0.00200
C1522       C  0.62945882  0.80473369  0.57670616    -0.12100
C1523       C  0.61038924  0.79986253  0.55186106     0.02000
C1524       C  0.57855868  0.80029433  0.55570335    -0.00300
C1525       C  0.56635321  0.80397968  0.58468720    -0.12100
C1526       C  0.58535850  0.80899391  0.60947146     0.01900
H1527       H  0.65392468  0.80586104  0.57343183     0.14900
H1528       H  0.54184595  0.80406886  0.58776545     0.14900
C1529       C  0.57175116  0.81356478  0.63869855     0.36500
C1530       C  0.62377120  0.79574691  0.52246600     0.36400
N1531       N  0.56072623  0.81698885  0.66211608    -0.43800
N1532       N  0.63434970  0.79235199  0.49884186    -0.43800
C1533       C  0.70118477  0.80059561  0.68341863    -0.00200
C1534       C  0.73318978  0.80230186  0.68219702    -0.12100
C1535       C  0.75182600  0.78411390  0.70065869     0.02000
C1536       C  0.73895562  0.76352122  0.72230437    -0.00300
C1537       C  0.70672939  0.76140809  0.72249860    -0.12100
C1538       C  0.68823426  0.77956659  0.70409618     0.01900
H1539       H  0.74441025  0.81810258  0.66718075     0.14900
H1540       H  0.69510375  0.74472733  0.73625982     0.14900
C1541       C  0.65562093  0.77581298  0.70705146     0.36500
C1542       C  0.78431834  0.78793758  0.69682057     0.36400
N1543       N  0.62952973  0.77279132  0.70939862    -0.43800
N1544       N  0.81021349  0.79168431  0.69349985    -0.43800
C1545       C  0.44038055  0.92333350  0.70055224    -0.00200
C1546       C  0.44959311  0.89269864  0.69950030    -0.12100
C1547       C  0.42874538  0.86967268  0.69235958     0.02000
C1548       C  0.39841577  0.87746782  0.68567792    -0.00300
C1549       C  0.38868073  0.90777106  0.68888136    -0.12100
C1550       C  0.40943840  0.93073718  0.69656565     0.01900
H1551       H  0.47345002  0.88703510  0.70219681     0.14900
H1552       H  0.36531502  0.91373020  0.68362891     0.14900
C1553       C  0.39897636  0.96195413  0.69836019     0.36500
C1554       C  0.43935981  0.83855684  0.68980938     0.36400
N1555       N  0.39052116  0.98693359  0.70005650    -0.43800
N1556       N  0.44773881  0.81358228  0.68770435    -0.43800
C1557       C  0.41047009  0.81246114  0.60612213    -0.00200
C1558       C  0.43770487  0.82920290  0.60675458    -0.12100
C1559       C  0.45922465  0.82662038  0.58374424     0.02000
C1560       C  0.45398643  0.80639976  0.55962295    -0.00300
C1561       C  0.42756622  0.78837894  0.55966271    -0.12100
C1562       C  0.40556144  0.79158081  0.58235601     0.01900
H1563       H  0.44188319  0.84511494  0.62491203     0.14900
H1564       H  0.42332111  0.77300913  0.54104511     0.14900
C1565       C  0.37729713  0.77502697  0.57920733     0.36500
C1566       C  0.48640884  0.84517087  0.58546931     0.36400
N1567       N  0.35464178  0.76177094  0.57659453    -0.43800
N1568       N  0.50806572  0.86018786  0.58691802    -0.43800
C1569       C  0.33683915  0.87891795  0.60107525    -0.00200
C1570       C  0.35883590  0.88479290  0.57878994    -0.12100
C1571       C  0.35488752  0.90764719  0.55731704     0.02000
C1572       C  0.32691182  0.92360587  0.55566357    -0.00300
C1573       C  0.30402323  0.91663444  0.57683125    -0.12100
C1574       C  0.30895485  0.89509456  0.59983655     0.01900
H1575       H  0.37983843  0.87182573  0.57823815     0.14900
H1576       H  0.28255945  0.92885526  0.57611325     0.14900
C1577       C  0.28547498  0.89134617  0.62230750     0.36500
C1578       C  0.38058163  0.91432241  0.53795243     0.36400
N1579       N  0.26631834  0.88861756  0.64005547    -0.43800
N1580       N  0.40140106  0.91970301  0.52278550    -0.43800
C1581       C  0.32011481  0.79401070  0.67864706    -0.00200
C1582       C  0.32105064  0.76194350  0.67636150    -0.12100
C1583       C  0.30365163  0.74315627  0.69542877     0.02000
C1584       C  0.28487327  0.75616008  0.71829612    -0.00300
C1585       C  0.28172325  0.78831894  0.71787929    -0.12100
C1586       C  0.29860299  0.80691408  0.69860077     0.01900
H1587       H  0.33555408  0.75087427  0.66013412     0.14900
H1588       H  0.26526596  0.79972846  0.73194944     0.14900
C1589       C  0.29349517  0.83952431  0.70040042     0.36500
C1590       C  0.30746591  0.71051179  0.69211431     0.36400
N1591       N  0.28936445  0.86558262  0.70207771    -0.43800
N1592       N  0.31108772  0.68447795  0.68927097    -0.43800
C1593       C  0.40527275  0.82027474  0.37687712    -0.00200
C1594       C  0.39876717  0.79929155  0.40010930    -0.12100
C1595       C  0.41952163  0.79438715  0.42372440     0.02000
C1596       C  0.44721781  0.81078848  0.42432668    -0.00300
C1597       C  0.45385633  0.83116697  0.40089102    -0.12100
C1598       C  0.43351545  0.83579297  0.37725004     0.01900
H1599       H  0.37701239  0.78753806  0.40036887     0.14900
H1600       H  0.47541347  0.84334817  0.40085312     0.14900
C1601       C  0.44328424  0.85577518  0.35328277     0.36500
C1602       C  0.41118491  0.77388512  0.44788251     0.36400
N1603       N  0.45272903  0.87174199  0.33469374    -0.43800
N1604       N  0.40448468  0.75756027  0.46734920    -0.43800
C1605       C  0.39283559  0.89151158  0.30259750    -0.00200
C1606       C  0.41392695  0.88517358  0.27947078    -0.12100
C1607       C  0.43693791  0.90629477  0.27192580     0.02000
C1608       C  0.43897940  0.93405021  0.28776576    -0.00300
C1609       C  0.41617070  0.94145896  0.30848633    -0.12100
C1610       C  0.39307433  0.92084442  0.31575380     0.01900
H1611       H  0.41387080  0.86291871  0.26882799     0.14900
H1612       H  0.41676190  0.96343805  0.31952562     0.14900
C1613       C  0.37008600  0.93093000  0.33671435     0.36500
C1614       C  0.45929222  0.89800956  0.24961653     0.36400
N1615       N  0.35221922  0.94020985  0.35351998    -0.43800
N1616       N  0.47702313  0.89116224  0.23157078    -0.43800
C1617       C  0.32247540  0.87651445  0.38081653    -0.00200
C1618       C  0.33554229  0.87196509  0.40910270    -0.12100
C1619       C  0.32921075  0.89170403  0.43283836     0.02000
C1620       C  0.30949767  0.91676214  0.42849955    -0.00300
C1621       C  0.29397494  0.91960464  0.40104894    -0.12100
C1622       C  0.30031475  0.89956411  0.37712814     0.01900
H1623       H  0.35199352  0.85374647  0.41225553     0.14900
H1624       H  0.27884145  0.93884435  0.39749222     0.14900
C1625       C  0.28657658  0.90526174  0.34822398     0.36500
C1626       C  0.34398422  0.88604343  0.46120588     0.36400
N1627       N  0.27575439  0.91000560  0.32498687    -0.43800
N1628       N  0.35590545  0.88066569  0.48374140    -0.43800
C1629       C  0.28387879  0.75863438  0.26201747    -0.00200
C1630       C  0.28452287  0.79067340  0.25711648    -0.12100
C1631       C  0.30193203  0.81054278  0.27477556     0.02000
C1632       C  0.32233561  0.79903280  0.29666751    -0.00300
C1633       C  0.32344606  0.76713360  0.30046087    -0.12100
C1634       C  0.30497955  0.74722867  0.28375673     0.01900
H1635       H  0.27171978  0.80109152  0.23915617     0.14900
H1636       H  0.33796493  0.75704090  0.31725247     0.14900
C1637       C  0.30817561  0.71515656  0.29074135     0.36500
C1638       C  0.29797599  0.84296491  0.26974486     0.36400
N1639       N  0.31179124  0.68992681  0.29774232    -0.43800
N1640       N  0.29475854  0.86888968  0.26559672    -0.43800
C1641       C  0.68777893  0.87817714  0.37515841    -0.00200
C1642       C  0.66930036  0.87717004  0.40088047    -0.12100
C1643       C  0.67313572  0.89781901  0.42444643     0.02000
C1644       C  0.69624061  0.92030781  0.42309495    -0.00300
C1645       C  0.71680636  0.91947020  0.39865490    -0.12100
C1646       C  0.71275395  0.89862311  0.37474001     0.01900
H1647       H  0.65077217  0.86076690  0.40210645     0.14900
H1648       H  0.73497471  0.93622559  0.39734825     0.14900
C1649       C  0.73288497  0.90038471  0.34908808     0.36500
C1650       C  0.65268766  0.89500318  0.44966539     0.36400
N1651       N  0.74903151  0.90164562  0.32849253    -0.43800
N1652       N  0.63581878  0.89168419  0.46940291    -0.43800
C1653       C  0.60944944  0.81723772  0.36448279    -0.00200
C1654       C  0.61562525  0.79260100  0.38405182    -0.12100
C1655       C  0.59680424  0.78653906  0.40913158     0.02000
C1656       C  0.57186806  0.80587795  0.41534431    -0.00300
C1657       C  0.56458960  0.82895687  0.39462810    -0.12100
C1658       C  0.58259043  0.83436096  0.36920030     0.01900
H1659       H  0.63595957  0.77899290  0.38063565     0.14900
H1660       H  0.54461855  0.84305375  0.39841651     0.14900
C1661       C  0.57240009  0.85740223  0.34822381     0.36500
C1662       C  0.60442716  0.76146946  0.42886467     0.36400
N1663       N  0.56353646  0.87589617  0.33179351    -0.43800
N1664       N  0.61042146  0.74122338  0.44457497    -0.43800
C1665       C  0.62349063  0.89484430  0.29434473    -0.00200
C1666       C  0.60317519  0.88989209  0.27035469    -0.12100
C1667       C  0.58091096  0.91182361  0.26288464     0.02000
C1668       C  0.57854948  0.93881996  0.27999890    -0.00300
C1669       C  0.60085209  0.94491598  0.30163201    -0.12100
C1670       C  0.62326844  0.92356692  0.30867310     0.01900
H1671       H  0.60350462  0.86821553  0.25861580     0.14900
H1672       H  0.60006785  0.96624422  0.31402531     0.14900
C1673       C  0.64554169  0.93220067  0.33081277     0.36500
C1674       C  0.56007588  0.90542388  0.23873768     0.36400
N1675       N  0.66293868  0.94038569  0.34851076    -0.43800
N1676       N  0.54381466  0.90029132  0.21897212    -0.43800
C1677       C  0.69526578  0.80136785  0.28816329    -0.00200
C1678       C  0.69585234  0.80171584  0.25644372    -0.12100
C1679       C  0.71482667  0.78225444  0.23967831     0.02000
C1680       C  0.73523600  0.76159116  0.25418487    -0.00300
C1681       C  0.73203459  0.75917859  0.28589981    -0.12100
C1682       C  0.71285981  0.77852851  0.30258195     0.01900
H1683       H  0.68127181  0.81680532  0.24388146     0.14900
H1684       H  0.74395034  0.74174604  0.29841455     0.14900
C1685       C  0.71149010  0.77392475  0.33476449     0.36500
C1686       C  0.71306277  0.78494912  0.20732599     0.36400
N1687       N  0.71033389  0.77014374  0.36051566    -0.43800
N1688       N  0.71113867  0.78774980  0.18151719    -0.43800
C1689       C  0.44060168  0.17849049  0.42639104    -0.00200
C1690       C  0.43975216  0.19529849  0.39947125    -0.12100
C1691       C  0.41609996  0.19091486  0.37874742     0.02000
C1692       C  0.39224610  0.17024711  0.38555872    -0.00300
C1693       C  0.39244491  0.15477029  0.41319155    -0.12100
C1694       C  0.41645248  0.15825909  0.43329260     0.01900
H1695       H  0.45836014  0.21067050  0.39395056     0.14900
H1696       H  0.37407817  0.13911992  0.41879662     0.14900
C1697       C  0.41576804  0.14042011  0.46069427     0.36500
C1698       C  0.41815478  0.20606769  0.34993486     0.36400
N1699       N  0.41528737  0.12577151  0.48240249    -0.43800
N1700       N  0.41987092  0.21813596  0.32678954    -0.43800
C1701       C  0.31389881  0.10067653  0.38265228    -0.00200
C1702       C  0.30843111  0.10752709  0.41290936    -0.12100
C1703       C  0.30223790  0.08414250  0.43360736     0.02000
C1704       C  0.30221202  0.05344607  0.42404459    -0.00300
C1705       C  0.30569901  0.04680212  0.39341895    -0.12100
C1706       C  0.31095333  0.07031070  0.37257853     0.01900
H1707       H  0.31047502  0.13094418  0.42059273     0.14900
H1708       H  0.30562447  0.02320261  0.38601291     0.14900
C1709       C  0.31421359  0.06277462  0.34114754     0.36500
C1710       C  0.29788253  0.09195895  0.46484155     0.36400
N1711       N  0.31674576  0.05688913  0.31590955    -0.43800
N1712       N  0.29414956  0.09831300  0.48981697    -0.43800
C1713       C  0.38802737  0.10098069  0.31158181    -0.00200
C1714       C  0.39159930  0.07366740  0.32778642    -0.12100
C1715       C  0.41500207  0.05323528  0.32136557     0.02000
C1716       C  0.43487430  0.05875499  0.29682128    -0.00300
C1717       C  0.43040955  0.08510277  0.27922958    -0.12100
C1718       C  0.40774402  0.10658050  0.28681910     0.01900
H1719       H  0.37666627  0.06848811  0.34654045     0.14900
H1720       H  0.44585553  0.08988073  0.26071446     0.14900
C1721       C  0.40710490  0.13506530  0.27039298     0.36500
C1722       C  0.41857830  0.02746910  0.34149161     0.36400
N1723       N  0.40672639  0.15795973  0.25727813    -0.43800
N1724       N  0.42151880  0.00745843  0.35831938    -0.43800
C1725       C  0.30710979  0.18537052  0.30677260    -0.00200
C1726       C  0.29020747  0.17033551  0.28452816    -0.12100
C1727       C  0.27035214  0.18588827  0.26531845     0.02000
C1728       C  0.26910525  0.21857598  0.26580357    -0.00300
C1729       C  0.28310493  0.23286006  0.29074879    -0.12100
C1730       C  0.30051096  0.21664911  0.31171426     0.01900
H1731       H  0.29177140  0.14563559  0.28282742     0.14900
H1732       H  0.28052502  0.25729768  0.29384593     0.14900
C1733       C  0.30775147  0.23236775  0.33923096     0.36500
C1734       C  0.25031111  0.16642865  0.24822781     0.36400
N1735       N  0.31285399  0.24525971  0.36134295    -0.43800
N1736       N  0.23438472  0.14994675  0.23536335    -0.43800
C1737       C  0.39364500  0.09970088  0.66998343    -0.00200
C1738       C  0.39464574  0.07277150  0.65299923    -0.12100
C1739       C  0.41596446  0.04986804  0.65892317     0.02000
C1740       C  0.43692742  0.05322527  0.68282588    -0.00300
C1741       C  0.43430016  0.07902692  0.70150851    -0.12100
C1742       C  0.41302087  0.10230598  0.69518853     0.01900
H1743       H  0.37927556  0.07002560  0.63414145     0.14900
H1744       H  0.45002994  0.08188343  0.72002794     0.14900
C1745       C  0.41355294  0.12971202  0.71313700     0.36500
C1746       C  0.41574253  0.02325065  0.63975711     0.36400
N1747       N  0.41403484  0.15176503  0.72742663    -0.43800
N1748       N  0.41547327  0.00199934  0.62432960    -0.43800
C1749       C  0.44912524  0.18997930  0.55598403    -0.00200
C1750       C  0.45743950  0.17250432  0.58107410    -0.12100
C1751       C  0.43695826  0.16734677  0.60453835     0.02000
C1752       C  0.40732855  0.17954711  0.60295635    -0.00300
C1753       C  0.40003816  0.19979945  0.57939465    -0.12100
C1754       C  0.42075190  0.20501257  0.55576129     0.01900
H1755       H  0.47972027  0.16179523  0.58176182     0.14900
H1756       H  0.37727826  0.20929916  0.57804723     0.14900
C1757       C  0.41116699  0.22289716  0.53016479     0.36500
C1758       C  0.44700169  0.14904440  0.62963336     0.36400
N1759       N  0.40345380  0.23708709  0.50954759    -0.43800
N1760       N  0.45603036  0.13455611  0.64948507    -0.43800
C1761       C  0.33314389  0.10750506  0.58995931    -0.00200
C1762       C  0.30853475  0.08750855  0.59528299    -0.12100
C1763       C  0.30195117  0.06343218  0.57535031     0.02000
C1764       C  0.32008260  0.05916427  0.54936577    -0.00300
C1765       C  0.34366279  0.07996185  0.54350122    -0.12100
C1766       C  0.35027724  0.10378528  0.56321267     0.01900
H1767       H  0.29531695  0.08974633  0.61580141     0.14900
H1768       H  0.35735867  0.07747589  0.52328617     0.14900
C1769       C  0.37496141  0.12373080  0.55474098     0.36500
C1770       C  0.27787724  0.04236676  0.58316634     0.36400
N1771       N  0.39520863  0.13861313  0.54677375    -0.43800
N1772       N  0.25866062  0.02538150  0.58950629    -0.43800
C1773       C  0.31443454  0.18599741  0.67318167    -0.00200
C1774       C  0.31390156  0.21817796  0.67165778    -0.12100
C1775       C  0.29631235  0.23587162  0.69144116     0.02000
C1776       C  0.27780974  0.22174156  0.71403136    -0.00300
C1777       C  0.27460386  0.18953885  0.71174923    -0.12100
C1778       C  0.29273162  0.17191329  0.69231518     0.01900
H1779       H  0.32727997  0.23036100  0.65522052     0.14900
H1780       H  0.25792842  0.17736922  0.72505434     0.14900
C1781       C  0.28838884  0.13917265  0.69258007     0.36500
C1782       C  0.29994747  0.26859555  0.68879739     0.36400
N1783       N  0.28490157  0.11294869  0.69280082    -0.43800
N1784       N  0.30396797  0.29456636  0.68572744    -0.43800
C1785       C  0.68993158  0.09455568  0.36879734    -0.00200
C1786       C  0.70991185  0.10175028  0.39240498    -0.12100
C1787       C  0.71531991  0.08076889  0.41574121     0.02000
C1788       C  0.70078816  0.05203971  0.41533256    -0.00300
C1789       C  0.68233702  0.04429213  0.39086891    -0.12100
C1790       C  0.67682928  0.06513770  0.36771976     0.01900
H1791       H  0.71979489  0.12444104  0.39359311     0.14900
H1792       H  0.67136326  0.02205426  0.39033892     0.14900
C1793       C  0.65735830  0.05556676  0.34343960     0.36500
C1794       C  0.73350663  0.09021626  0.44103387     0.36400
N1795       N  0.64167101  0.04703043  0.32438649    -0.43800
N1796       N  0.74792734  0.09788953  0.46139451    -0.43800
C1797       C  0.62334686  0.16985242  0.37821892    -0.00200
C1798       C  0.62530325  0.15373844  0.40546582    -0.12100
C1799       C  0.60309150  0.15707104  0.42780792     0.02000
C1800       C  0.57852738  0.17737024  0.42328182    -0.00300
C1801       C  0.57708627  0.19429611  0.39647245    -0.12100
C1802       C  0.59888499  0.19022313  0.37371023     0.01900
H1803       H  0.64383241  0.13771793  0.40891671     0.14900
H1804       H  0.55797320  0.20949820  0.39265060     0.14900
C1805       C  0.59384068  0.20494210  0.34512468     0.36500
C1806       C  0.60611424  0.13938329  0.45513806     0.36400
N1807       N  0.58888865  0.21666926  0.32231791    -0.43800
N1808       N  0.60856520  0.12511668  0.47696241    -0.43800
C1809       C  0.56798930  0.06995617  0.28535656    -0.00200
C1810       C  0.59459017  0.06961114  0.26766966    -0.12100
C1811       C  0.61847168  0.09023088  0.27342925     0.02000
C1812       C  0.61530253  0.11186594  0.29672538    -0.00300
C1813       C  0.58740054  0.11415530  0.31196120    -0.12100
C1814       C  0.56406671  0.09323335  0.30687986     0.01900
H1815       H  0.59773870  0.05171820  0.25113485     0.14900
H1816       H  0.58455207  0.13116248  0.32945320     0.14900
C1817       C  0.53685723  0.09527206  0.32515665     0.36500
C1818       C  0.64702833  0.08638163  0.25772795     0.36400
N1819       N  0.51518258  0.09675624  0.33996304    -0.43800
N1820       N  0.67002432  0.08320565  0.24533498    -0.43800
C1821       C  0.70489616  0.18630194  0.29757792    -0.00200
C1822       C  0.73682611  0.18468696  0.29967676    -0.12100
C1823       C  0.75606747  0.20244415  0.28150617     0.02000
C1824       C  0.74386689  0.22294119  0.25962819    -0.00300
C1825       C  0.71197540  0.22773710  0.26114824    -0.12100
C1826       C  0.69276543  0.20949731  0.27890618     0.01900
H1827       H  0.74770393  0.16966402  0.31562255     0.14900
H1828       H  0.70130108  0.24604516  0.24870029     0.14900
C1829       C  0.66048397  0.21527070  0.27698852     0.36500
C1830       C  0.78830101  0.19781326  0.28586867     0.36400
N1831       N  0.63473333  0.22026682  0.27477022    -0.43800
N1832       N  0.81370116  0.19285562  0.29069694    -0.43800
C1833       C  0.68898060  0.10621253  0.59372985    -0.00200
C1834       C  0.70196312  0.07786886  0.60130046    -0.12100
C1835       C  0.70671546  0.05520134  0.57930279     0.02000
C1836       C  0.69790970  0.06051940  0.54919389    -0.00300
C1837       C  0.68605471  0.08922591  0.54147462    -0.12100
C1838       C  0.68194769  0.11205440  0.56325557     0.01900
H1839       H  0.70704782  0.07289507  0.62465683     0.14900
H1840       H  0.67966686  0.09372424  0.51833171     0.14900
C1841       C  0.67088682  0.14143617  0.55347570     0.36500
C1842       C  0.71870087  0.02592715  0.58847843     0.36400
N1843       N  0.66265915  0.16492209  0.54470784    -0.43800
N1844       N  0.72826892  0.00241040  0.59575663    -0.43800
C1845       C  0.62159681  0.09598765  0.67097471    -0.00200
C1846       C  0.62053879  0.06884496  0.65433021    -0.12100
C1847       C  0.59794049  0.04694404  0.65955592     0.02000
C1848       C  0.57586716  0.05171936  0.68231071    -0.00300
C1849       C  0.57834115  0.07768032  0.70063576    -0.12100
C1850       C  0.60072147  0.09997432  0.69498183     0.01900
H1851       H  0.63687826  0.06517973  0.63633983     0.14900
H1852       H  0.56160405  0.08150766  0.71821629     0.14900
C1853       C  0.59942795  0.12802434  0.71191720     0.36500
C1854       C  0.59802058  0.01987481  0.64101438     0.36400
N1855       N  0.59821286  0.15057614  0.72539201    -0.43800
N1856       N  0.59818985  0.99831647  0.62599999    -0.43800
C1857       C  0.61118203  0.17415020  0.60419602    -0.00200
C1858       C  0.61736936  0.19823422  0.58395612    -0.12100
C1859       C  0.59744332  0.20464940  0.56006728     0.02000
C1860       C  0.57095975  0.18684644  0.55661177    -0.00300
C1861       C  0.56319105  0.16553944  0.57890997    -0.12100
C1862       C  0.58274874  0.15924230  0.60262177     0.01900
H1863       H  0.63879655  0.21047033  0.58540593     0.14900
H1864       H  0.54190766  0.15299199  0.57731293     0.14900
C1865       C  0.57229190  0.13766087  0.62492957     0.36500
C1866       C  0.60572779  0.22780258  0.53836302     0.36400
N1867       N  0.56215200  0.12050882  0.64208978    -0.43800
N1868       N  0.61231581  0.24643260  0.52097911    -0.43800
C1869       C  0.73608449  0.21907621  0.72121736    -0.00200
C1870       C  0.73742069  0.18665642  0.72057464    -0.12100
C1871       C  0.71992715  0.16899779  0.70061224     0.02000
C1872       C  0.69860124  0.18289600  0.68101979    -0.00300
C1873       C  0.69616608  0.21500129  0.68246701    -0.12100
C1874       C  0.71384733  0.23275947  0.70203842     0.01900
H1875       H  0.75165677  0.17419978  0.73605343     0.14900
H1876       H  0.68064567  0.22730681  0.66816654     0.14900
C1877       C  0.70890382  0.26541705  0.70072214     0.36500
C1878       C  0.72422302  0.13625517  0.70119371     0.36400
N1879       N  0.70444633  0.29143904  0.69903732    -0.43800
N1880       N  0.72760164  0.11002683  0.70174499    -0.43800
C1881       C  0.38639712  0.67498597  0.89756262    -0.00200
C1882       C  0.40867723  0.69682013  0.88988947    -0.12100
C1883       C  0.43305214  0.70304245  0.90945814     0.02000
C1884       C  0.43508051  0.68737201  0.93721419    -0.00300
C1885       C  0.41124974  0.66797216  0.94593035    -0.12100
C1886       C  0.38703702  0.66185351  0.92661309     0.01900
H1887       H  0.40854288  0.70698063  0.86761207     0.14900
H1888       H  0.41212022  0.65660131  0.96764797     0.14900
C1889       C  0.36345298  0.64173526  0.93750966     0.36500
C1890       C  0.45723780  0.72287651  0.89918152     0.36400
N1891       N  0.34506623  0.62585056  0.94774166    -0.43800
N1892       N  0.47674479  0.73865098  0.89093554    -0.43800
C1893       C  0.40134303  0.60440857  0.82211174    -0.00200
C1894       C  0.39486703  0.58415729  0.79842346    -0.12100
C1895       C  0.41565970  0.56130323  0.79003288     0.02000
C1896       C  0.44358818  0.55859451  0.80541728    -0.00300
C1897       C  0.45051323  0.57960545  0.82809921    -0.12100
C1898       C  0.42988001  0.60229610  0.83649933     0.01900
H1899       H  0.37290000  0.58520025  0.78740570     0.14900
H1900       H  0.47214720  0.57798797  0.83973392     0.14900
C1901       C  0.43908007  0.62293120  0.85994988     0.36500
C1902       C  0.40681263  0.53965935  0.76724065     0.36400
N1903       N  0.44741250  0.63879677  0.87895928    -0.43800
N1904       N  0.39957677  0.52226261  0.74906050    -0.43800
C1905       C  0.32540243  0.58996709  0.88462341    -0.00200
C1906       C  0.34396428  0.56412847  0.88223694    -0.12100
C1907       C  0.34329268  0.54130986  0.90415655     0.02000
C1908       C  0.32376851  0.54414176  0.92928585    -0.00300
C1909       C  0.30239678  0.56805088  0.92970174    -0.12100
C1910       C  0.30301136  0.59098696  0.90745192     0.01900
H1911       H  0.36039292  0.56262940  0.86400208     0.14900
H1912       H  0.28678355  0.57009074  0.94853624     0.14900
C1913       C  0.28305866  0.61696575  0.91065025     0.36500
C1914       C  0.36311307  0.51543037  0.90006119     0.36400
N1915       N  0.26716046  0.63784930  0.91343562    -0.43800
N1916       N  0.37911542  0.49496135  0.89566255    -0.43800
C1917       C  0.28491181  0.71541103  0.76216374    -0.00200
C1918       C  0.26823923  0.69766118  0.78329198    -0.12100
C1919       C  0.28204191  0.68114786  0.80662178     0.02000
C1920       C  0.31418003  0.67901818  0.80812599    -0.00300
C1921       C  0.33100559  0.69755770  0.78822380    -0.12100
C1922       C  0.31730926  0.71592030  0.76616603     0.01900
H1923       H  0.24355896  0.69797637  0.78246918     0.14900
H1924       H  0.35560817  0.69828050  0.79048458     0.14900
C1925       C  0.33809860  0.73630579  0.75083157     0.36500
C1926       C  0.26210972  0.67058921  0.83029795     0.36400
N1927       N  0.35569504  0.75251395  0.73963667    -0.43800
N1928       N  0.24555516  0.66286636  0.84916831    -0.43800
C1929       C  0.70316600  0.55935296  0.93149215    -0.00200
C1930       C  0.72239389  0.55980546  0.90612133    -0.12100
C1931       C  0.71764728  0.58089733  0.88261108     0.02000
C1932       C  0.69315347  0.60175273  0.88434368    -0.00300
C1933       C  0.67600430  0.60311095  0.91098261    -0.12100
C1934       C  0.68081324  0.58238608  0.93442804     0.01900
H1935       H  0.73994764  0.54254739  0.90380721     0.14900
H1936       H  0.65794412  0.61988551  0.91311358     0.14900
C1937       C  0.66214372  0.58512858  0.96112594     0.36500
C1938       C  0.73679290  0.57915575  0.85624726     0.36400
N1939       N  0.64719710  0.58737805  0.98249478    -0.43800
N1940       N  0.75229255  0.57768677  0.83520324    -0.43800
C1941       C  0.61453090  0.66447818  0.87532246    -0.00200
C1942       C  0.58722129  0.64789873  0.87485833    -0.12100
C1943       C  0.56416503  0.65367361  0.89577371     0.02000
C1944       C  0.56814318  0.67674434  0.91756360    -0.00300
C1945       C  0.59482097  0.69441232  0.91708004    -0.12100
C1946       C  0.61816230  0.68824655  0.89646658     0.01900
H1947       H  0.58408262  0.62994065  0.85838358     0.14900
H1948       H  0.59823962  0.71185665  0.93401989     0.14900
C1949       C  0.64634985  0.70504313  0.89913738     0.36500
C1950       C  0.53679474  0.63540876  0.89440064     0.36400
N1951       N  0.66892584  0.71850848  0.90136889    -0.43800
N1952       N  0.51499941  0.62058171  0.89321503    -0.43800
C1953       C  0.62419034  0.59230937  0.80482630    -0.00200
C1954       C  0.59743311  0.60182795  0.79028835    -0.12100
C1955       C  0.57354650  0.58107372  0.78479474     0.02000
C1956       C  0.57616761  0.55033755  0.79430593    -0.00300
C1957       C  0.60357123  0.54060602  0.80731954    -0.12100
C1958       C  0.62753461  0.56114189  0.81231151     0.01900
H1959       H  0.59449847  0.62580693  0.78476568     0.14900
H1960       H  0.60602828  0.51691261  0.81418172     0.14900
C1961       C  0.65535326  0.54962642  0.82524999     0.36500
C1962       C  0.54578852  0.59231428  0.77147186     0.36400
N1963       N  0.67764246  0.53995548  0.83527060    -0.43800
N1964       N  0.52353084  0.60135649  0.76080655    -0.43800
C1965       C  0.70168740  0.68025713  0.79957044    -0.00200
C1966       C  0.70153212  0.71226464  0.80355234    -0.12100
C1967       C  0.71965642  0.73191303  0.78603261     0.02000
C1968       C  0.73907527  0.72021397  0.76307573    -0.00300
C1969       C  0.74086708  0.68790338  0.76099343    -0.12100
C1970       C  0.72284656  0.66832933  0.77866449     0.01900
H1971       H  0.68794966  0.72274431  0.82089050     0.14900
H1972       H  0.75724143  0.67710331  0.74635195     0.14900
C1973       C  0.72731736  0.63580277  0.77522762     0.36500
C1974       C  0.71692045  0.76430403  0.79186258     0.36400
N1975       N  0.73098275  0.60977521  0.77242903    -0.43800
N1976       N  0.71424186  0.79016260  0.79659735    -0.43800
C1977       C  0.68175972  0.38427238  0.87277006    -0.00200
C1978       C  0.70337435  0.37673831  0.89493783    -0.12100
C1979       C  0.71054869  0.39731247  0.91817008     0.02000
C1980       C  0.69617343  0.42614211  0.91930958    -0.00300
C1981       C  0.67561363  0.43405391  0.89664683    -0.12100
C1982       C  0.66840473  0.41373525  0.87356726     0.01900
H1983       H  0.71352485  0.35415550  0.89504187     0.14900
H1984       H  0.66466403  0.45628531  0.89724700     0.14900
C1985       C  0.64704444  0.42437301  0.85135869     0.36500
C1986       C  0.73075963  0.38740221  0.94178904     0.36400
N1987       N  0.62954952  0.43412325  0.83450062    -0.43800
N1988       N  0.74679900  0.37937671  0.96083585    -0.43800
C1989       C  0.60989521  0.37262338  0.79588910    -0.00200
C1990       C  0.58002190  0.36693479  0.80511177    -0.12100
C1991       C  0.55779838  0.38941795  0.80242587     0.02000
C1992       C  0.56454847  0.41677764  0.78688303    -0.00300
C1993       C  0.59309238  0.42018353  0.77291337    -0.12100
C1994       C  0.61611118  0.39844297  0.77780027     0.01900
H1995       H  0.57463261  0.34563690  0.81630951     0.14900
H1996       H  0.59830493  0.44106780  0.76072344     0.14900
C1997       C  0.64635518  0.40457757  0.76656061     0.36500
C1998       C  0.52920898  0.38473422  0.81795252     0.36400
N1999       N  0.67051492  0.40975218  0.75740071    -0.43800
N2000       N  0.50661747  0.38090358  0.83091429    -0.43800
C2001       C  0.60936722  0.31141566  0.87756758    -0.00200
C2002       C  0.58227300  0.32839934  0.87927474    -0.12100
C2003       C  0.55993063  0.32216372  0.90071599     0.02000
C2004       C  0.56447552  0.29871601  0.92204144    -0.00300
C2005       C  0.59131434  0.28132845  0.92059788    -0.12100
C2006       C  0.61390042  0.28770400  0.89893019     0.01900
H2007       H  0.57830541  0.34729510  0.86428656     0.14900
H2008       H  0.59533988  0.26374101  0.93736802     0.14900
C2009       C  0.64239357  0.27145114  0.90112954     0.36500
C2010       C  0.53242003  0.34031988  0.90007966     0.36400
N2011       N  0.66528163  0.25850729  0.90307847    -0.43800
N2012       N  0.51044163  0.35489364  0.89962816    -0.43800
C2013       C  0.73509281  0.25885048  0.76189035    -0.00200
C2014       C  0.73614221  0.29119766  0.76115320    -0.12100
C2015       C  0.71727417  0.30939547  0.77899263     0.02000
C2016       C  0.69518772  0.29602904  0.79820419    -0.00300
C2017       C  0.69217464  0.26392847  0.79740108    -0.12100
C2018       C  0.71135302  0.24555955  0.77963750     0.01900
H2019       H  0.75099463  0.30326613  0.74588210     0.14900
H2020       H  0.67473757  0.25245435  0.81027229     0.14900
C2021       C  0.70697070  0.21286251  0.78169887     0.36500
C2022       C  0.72107780  0.34214121  0.77645956     0.36400
N2023       N  0.70329837  0.18674434  0.78385671    -0.43800
N2024       N  0.72451009  0.36829541  0.77444679    -0.43800
C2025       C  0.39588070  0.37480048  0.80994734    -0.00200
C2026       C  0.42338237  0.36857595  0.79505079    -0.12100
C2027       C  0.44344837  0.39243688  0.78723094     0.02000
C2028       C  0.43706881  0.42265738  0.79641397    -0.00300
C2029       C  0.40879630  0.42900232  0.80967416    -0.12100
C2030       C  0.38768637  0.40555107  0.81511756     0.01900
H2031       H  0.42933647  0.34511660  0.78989611     0.14900
H2032       H  0.40314489  0.45235475  0.81560976     0.14900
C2033       C  0.35739725  0.41370839  0.82487925     0.36500
C2034       C  0.47053545  0.38539450  0.77015809     0.36400
N2035       N  0.33298729  0.42041464  0.83219486    -0.43800
N2036       N  0.49203738  0.37981244  0.75609469    -0.43800
C2037       C  0.33731579  0.41735049  0.93851594    -0.00200
C2038       C  0.31296016  0.39698549  0.93370357    -0.12100
C2039       C  0.31416243  0.37482186  0.91070804     0.02000
C2040       C  0.33918026  0.37420520  0.89044943    -0.00300
C2041       C  0.36285229  0.39531122  0.89513329    -0.12100
C2042       C  0.36302613  0.41527089  0.91936091     0.01900
H2043       H  0.29341083  0.39757749  0.94865575     0.14900
H2044       H  0.38203319  0.39655535  0.87991982     0.14900
C2045       C  0.39074279  0.43249272  0.92394321     0.36500
C2046       C  0.29049091  0.35199810  0.91008735     0.36400
N2047       N  0.41330642  0.44565070  0.92760352    -0.43800
N2048       N  0.27149799  0.33364599  0.91021847    -0.43800
C2049       C  0.43464842  0.28064391  0.93002560    -0.00200
C2050       C  0.44156713  0.27084409  0.90073298    -0.12100
C2051       C  0.42147040  0.27692786  0.87696757     0.02000
C2052       C  0.39399766  0.29239979  0.88278719    -0.00300
C2053       C  0.38593699  0.29951779  0.91246008    -0.12100
C2054       C  0.40608494  0.29398650  0.93602676     0.01900
H2055       H  0.46365420  0.26083360  0.89601749     0.14900
H2056       H  0.36473019  0.31140586  0.91693755     0.14900
C2057       C  0.39776654  0.30387570  0.96592370     0.36500
C2058       C  0.43054744  0.26967142  0.84659732     0.36400
N2059       N  0.39120122  0.31188912  0.98985818    -0.43800
N2060       N  0.43771974  0.26399284  0.82218232    -0.43800
C2061       C  0.31254500  0.29531613  0.80423454    -0.00200
C2062       C  0.32770032  0.27780631  0.78232386    -0.12100
C2063       C  0.31251623  0.25882805  0.76206880     0.02000
C2064       C  0.27996758  0.25849916  0.76109608    -0.00300
C2065       C  0.26493822  0.27408203  0.78488970    -0.12100
C2066       C  0.28052232  0.29176830  0.80632373     0.01900
H2067       H  0.35243480  0.27814806  0.78174269     0.14900
H2068       H  0.24029696  0.27302183  0.78631440     0.14900
C2069       C  0.26240325  0.30429367  0.83030906     0.36500
C2070       C  0.33227251  0.23839975  0.74569844     0.36400
N2071       N  0.24679693  0.31357281  0.84920729    -0.43800
N2072       N  0.34917358  0.22214318  0.73372172    -0.43800
C2073       C  0.40696648  0.37005954  0.19585988    -0.00200
C2074       C  0.39838468  0.40053457  0.19185788    -0.12100
C2075       C  0.41847019  0.42402321  0.19905568     0.02000
C2076       C  0.44813242  0.41693939  0.20869257    -0.00300
C2077       C  0.45558640  0.38659699  0.21578538    -0.12100
C2078       C  0.43460802  0.36308266  0.21026195     0.01900
H2079       H  0.37646617  0.40590995  0.18198129     0.14900
H2080       H  0.47820036  0.38113026  0.22390357     0.14900
C2081       C  0.44243329  0.33196760  0.21783615     0.36500
C2082       C  0.40823412  0.45520379  0.19635073     0.36400
N2083       N  0.44864701  0.30701001  0.22392765    -0.43800
N2084       N  0.39936869  0.48005195  0.19514077    -0.43800
C2085       C  0.41304488  0.29536829  0.11786705    -0.00200
C2086       C  0.40120393  0.27693641  0.09469524    -0.12100
C2087       C  0.41848065  0.27070784  0.06869968     0.02000
C2088       C  0.44785946  0.28323528  0.06570928    -0.00300
C2089       C  0.46043917  0.29944992  0.08967239    -0.12100
C2090       C  0.44362483  0.30529795  0.11566274     0.01900
H2091       H  0.37780547  0.26908995  0.09594102     0.14900
H2092       H  0.48337830  0.30854939  0.08760266     0.14900
C2093       C  0.45871055  0.32205013  0.13915455     0.36500
C2094       C  0.40502870  0.25326439  0.04468972     0.36400
N2095       N  0.47222623  0.33555417  0.15699933    -0.43800
N2096       N  0.39433967  0.23917913  0.02543426    -0.43800
C2097       C  0.34634807  0.42219468  0.06892574    -0.00200
C2098       C  0.32894668  0.42288203  0.09544284    -0.12100
C2099       C  0.33242926  0.40028792  0.11761049     0.02000
C2100       C  0.35302507  0.37595404  0.11297736    -0.00300
C2101       C  0.37025107  0.37516984  0.08635761    -0.12100
C2102       C  0.36712023  0.39796810  0.06440797     0.01900
H2103       H  0.31314974  0.44154728  0.09916827     0.14900
H2104       H  0.38602401  0.35648479  0.08256205     0.14900
C2105       C  0.38454352  0.39524286  0.03691726     0.36500
C2106       C  0.31594937  0.40353623  0.14556425     0.36400
N2107       N  0.39842688  0.39299153  0.01486177    -0.43800
N2108       N  0.30295993  0.40609067  0.16810362    -0.43800
C2109       C  0.32239367  0.29305068  0.19024378    -0.00200
C2110       C  0.29108080  0.29591909  0.18424749    -0.12100
C2111       C  0.26896329  0.28025993  0.20104842     0.02000
C2112       C  0.27738298  0.26039661  0.22516458    -0.00300
C2113       C  0.30905829  0.25727255  0.23055715    -0.12100
C2114       C  0.33105430  0.27295263  0.21369329     0.01900
H2115       H  0.28297998  0.31023962  0.16621258     0.14900
H2116       H  0.31768186  0.24131222  0.24695643     0.14900
C2117       C  0.36264499  0.26766589  0.22122085     0.36500
C2118       C  0.23761746  0.28554112  0.19262657     0.36400
N2119       N  0.38784179  0.26346006  0.22754437    -0.43800
N2120       N  0.21273310  0.29028961  0.18551129    -0.43800
C2121       C  0.62867749  0.66723032  0.09174050    -0.00200
C2122       C  0.60394825  0.68624112  0.09875454    -0.12100
C2123       C  0.58176240  0.69298179  0.07714304     0.02000
C2124       C  0.58442914  0.68081700  0.04791505    -0.00300
C2125       C  0.60978678  0.66297739  0.04054469    -0.12100
C2126       C  0.63195149  0.65627266  0.06206044     0.01900
H2127       H  0.60102809  0.69435812  0.12160423     0.14900
H2128       H  0.61189439  0.65366815  0.01804281     0.14900
C2129       C  0.65777896  0.63827909  0.05275641     0.36500
C2130       C  0.55514098  0.71001407  0.08621885     0.36400
N2131       N  0.67822504  0.62407175  0.04421167    -0.43800
N2132       N  0.53369001  0.72345403  0.09354252    -0.43800
C2133       C  0.69829334  0.58918341  0.10777995    -0.00200
C2134       C  0.68154777  0.56184198  0.10884900    -0.12100
C2135       C  0.68572915  0.53916266  0.08722697     0.02000
C2136       C  0.70714267  0.54352819  0.06384339    -0.00300
C2137       C  0.72666254  0.56901189  0.06498066    -0.12100
C2138       C  0.72246225  0.59182999  0.08689758     0.01900
H2139       H  0.66376562  0.55895519  0.12563084     0.14900
H2140       H  0.74365945  0.57223977  0.04750656     0.14900
C2141       C  0.74109920  0.61897155  0.08556146     0.36500
C2142       C  0.66717430  0.51189528  0.08905370     0.36400
N2143       N  0.75603661  0.64076192  0.08460136    -0.43800
N2144       N  0.65248363  0.48994542  0.09029890    -0.43800
C2145       C  0.61802221  0.59662545  0.16617095    -0.00200
C2146       C  0.59026893  0.59654528  0.15071601    -0.12100
C2147       C  0.56796601  0.57470359  0.15719957     0.02000
C2148       C  0.57323610  0.55264948  0.17982451    -0.00300
C2149       C  0.60069496  0.55313408  0.19580083    -0.12100
C2150       C  0.62331961  0.57456682  0.18880742     0.01900
H2151       H  0.58612572  0.61347277  0.13331205     0.14900
H2152       H  0.60505572  0.53579976  0.21274777     0.14900
C2153       C  0.65248331  0.57190539  0.20348065     0.36500
C2154       C  0.53978253  0.57560609  0.14053762     0.36400
N2155       N  0.67594836  0.56970590  0.21505167    -0.43800
N2156       N  0.51723155  0.57624693  0.12715640    -0.43800
C2157       C  0.73748092  0.72118160  0.21410741    -0.00200
C2158       C  0.71141747  0.70710765  0.22701758    -0.12100
C2159       C  0.69123742  0.68913452  0.21030153     0.02000
C2160       C  0.69890365  0.68042955  0.18048776    -0.00300
C2161       C  0.72316450  0.69608194  0.16678368    -0.12100
C2162       C  0.74068256  0.71776541  0.18216890     0.01900
H2163       H  0.70621303  0.71073706  0.25057892     0.14900
H2164       H  0.72733600  0.69257695  0.14295967     0.14900
C2165       C  0.75811329  0.73769824  0.16277114     0.36500
C2166       C  0.66168225  0.68400797  0.22363868     0.36400
N2167       N  0.77103359  0.75334440  0.14597628    -0.43800
N2168       N  0.63792913  0.68072002  0.23457208    -0.43800
C2169       C  0.68849359  0.37104234  0.09559998    -0.00200
C2170       C  0.67122189  0.37045847  0.06918753    -0.12100
C2171       C  0.67672510  0.39126695  0.04599900     0.02000
C2172       C  0.69976974  0.41353169  0.04915160    -0.00300
C2173       C  0.71857786  0.41277251  0.07464115    -0.12100
C2174       C  0.71311523  0.39165150  0.09790076     0.01900
H2175       H  0.65284239  0.35403784  0.06692057     0.14900
H2176       H  0.73641795  0.42972587  0.07714487     0.14900
C2177       C  0.73176247  0.39284481  0.12453751     0.36500
C2178       C  0.65835316  0.38924833  0.01917620     0.36400
N2179       N  0.74677823  0.39366885  0.14585596    -0.43800
N2180       N  0.64371517  0.38752891  0.99765630    -0.43800
C2181       C  0.62720285  0.37901180  0.17956838    -0.00200
C2182       C  0.62940931  0.40842699  0.16719755    -0.12100
C2183       C  0.60833367  0.43097885  0.17471027     0.02000
C2184       C  0.58471209  0.42436181  0.19529581    -0.00300
C2185       C  0.58420234  0.39598520  0.21003099    -0.12100
C2186       C  0.60517637  0.37311427  0.20216296     0.01900
H2187       H  0.64658664  0.41326120  0.15022189     0.14900
H2188       H  0.56588204  0.39079305  0.22566362     0.14900
C2189       C  0.60128948  0.34299335  0.21495859     0.36500
C2190       C  0.61033918  0.46032139  0.15978101     0.36400
N2191       N  0.59803602  0.31882878  0.22515089    -0.43800
N2192       N  0.61169791  0.48385006  0.14787954    -0.43800
C2193       C  0.56947928  0.29897552  0.05573872    -0.00200
C2194       C  0.56264476  0.32006146  0.07841828    -0.12100
C2195       C  0.58287305  0.32541179  0.10194504     0.02000
C2196       C  0.61094722  0.30969930  0.10291626    -0.00300
C2197       C  0.61760544  0.28816523  0.08041625    -0.12100
C2198       C  0.59713283  0.28269080  0.05691072     0.01900
H2199       H  0.54114921  0.33227981  0.07790570     0.14900
H2200       H  0.63936842  0.27646740  0.08052505     0.14900
C2201       C  0.60581453  0.26176930  0.03336409     0.36500
C2202       C  0.57361128  0.34672379  0.12491656     0.36400
N2203       N  0.61278899  0.24513465  0.01437461    -0.43800
N2204       N  0.56542172  0.36399886  0.14283646    -0.43800
C2205       C  0.70119900  0.29076579  0.17628384    -0.00200
C2206       C  0.72366166  0.30720422  0.19191344    -0.12100
C2207       C  0.74538320  0.29318450  0.21014281     0.02000
C2208       C  0.74464178  0.26081190  0.21466627    -0.00300
C2209       C  0.72394307  0.24423640  0.19661194    -0.12100
C2210       C  0.70212792  0.25839866  0.17837594     0.01900
H2211       H  0.72437770  0.33192664  0.18960318     0.14900
H2212       H  0.72370491  0.21947780  0.19820712     0.14900
C2213       C  0.68148124  0.23805201  0.16328923     0.36500
C2214       C  0.76866747  0.31357410  0.22120857     0.36400
N2215       N  0.66554196  0.22051101  0.15186739    -0.43800
N2216       N  0.78704265  0.33067576  0.22924899    -0.43800
C2217       C  0.41973003  0.67817507  0.11474646    -0.00200
C2218       C  0.41251034  0.70079428  0.09342540    -0.12100
C2219       C  0.43249487  0.70728416  0.06961661     0.02000
C2220       C  0.45975574  0.69054898  0.06697473    -0.00300
C2221       C  0.46829985  0.67047170  0.09007173    -0.12100
C2222       C  0.44871329  0.66447222  0.11408426     0.01900
H2223       H  0.39039347  0.71179661  0.09415173     0.14900
H2224       H  0.48988709  0.65847955  0.08868116     0.14900
C2225       C  0.45891192  0.64403940  0.13750525     0.36500
C2226       C  0.42341309  0.72914740  0.04698872     0.36400
N2227       N  0.46779956  0.62790164  0.15616460    -0.43800
N2228       N  0.41624114  0.74677321  0.02889315    -0.43800
C2229       C  0.44323130  0.54656978  0.18969238    -0.00200
C2230       C  0.44289342  0.57174326  0.20929321    -0.12100
C2231       C  0.42368537  0.59680585  0.20392379     0.02000
C2232       C  0.40371653  0.59629906  0.17913230    -0.00300
C2233       C  0.40237853  0.57015983  0.16113118    -0.12100
C2234       C  0.42220938  0.54580289  0.16560647     0.01900
H2235       H  0.45913923  0.57284261  0.22756803     0.14900
H2236       H  0.38665400  0.56934433  0.14238300     0.14900
C2237       C  0.42084910  0.52096119  0.14428271     0.36500
C2238       C  0.42725102  0.62379933  0.22214599     0.36400
N2239       N  0.41961430  0.50121800  0.12706635    -0.43800
N2240       N  0.43031645  0.64552967  0.23659360    -0.43800
C2241       C  0.34338296  0.60823367  0.10251122    -0.00200
C2242       C  0.35753989  0.60958777  0.07422480    -0.12100
C2243       C  0.35401635  0.58599099  0.05327243     0.02000
C2244       C  0.33581412  0.56021010  0.06031414    -0.00300
C2245       C  0.32051811  0.55942643  0.08814925    -0.12100
C2246       C  0.32454445  0.58291422  0.10938855     0.01900
H2247       H  0.37238955  0.62871646  0.06890556     0.14900
H2248       H  0.30688629  0.53959183  0.09403320     0.14900
C2249       C  0.31154798  0.57912748  0.13903143     0.36500
C2250       C  0.36965025  0.58870484  0.02474280     0.36400
N2251       N  0.30144469  0.57606932  0.16292687    -0.43800
N2252       N  0.38224161  0.59083593  0.00192228    -0.43800
C2253       C  0.32919415  0.68537365  0.18727909    -0.00200
C2254       C  0.31041339  0.66934870  0.20757688    -0.12100
C2255       C  0.28953106  0.68408903  0.22652999     0.02000
C2256       C  0.28592732  0.71657960  0.22499347    -0.00300
C2257       C  0.30634784  0.73252105  0.20594945    -0.12100
C2258       C  0.32555910  0.71757253  0.18566151     0.01900
H2259       H  0.31212812  0.64463434  0.20876506     0.14900
H2260       H  0.30450980  0.75720883  0.20429734     0.14900
C2261       C  0.33607928  0.73588341  0.16064158     0.36500
C2262       C  0.27467869  0.66437873  0.24816584     0.36400
N2263       N  0.34374474  0.75092846  0.14052119    -0.43800
N2264       N  0.26365944  0.64773873  0.26535637    -0.43800
loop_ 
_geom_bond_atom_site_label_1 
_geom_bond_atom_site_label_2 
_geom_bond_distance 
_geom_bond_site_symmetry_2 
_ccdc_geom_bond_type 
C1            C2   1.551       .  S
C1            C7   1.545       .  S
C1            C5   1.550       .  S
C1         C2253   1.540       .  S
C2            H9   1.086       .  S
C2            C3   1.369       .  D
C3            C4   1.526       .  S
C3         C2241   1.491       .  S
C4            C8   1.527       .  S
C4            C6   1.532       .  S
C4           H10   1.111       .  S
C5           H11   1.085       .  S
C5            C6   1.367       .  D
C6         C2232   1.481       .  S
C7           H12   1.079       .  S
C7            C8   1.356       .  D
C8         C2217   1.475       .  S
C13          C14   1.546       .  S
C13          C19   1.553       .  S
C13          C17   1.546       .  S
C13        C2205   1.540       .  S
C14          H21   1.086       .  S
C14          C15   1.360       .  D
C15          C16   1.527       .  S
C15        C2169   1.479       .  S
C16          C20   1.528       .  S
C16          C18   1.531       .  S
C16          H22   1.110       .  S
C17          H23   1.086       .  S
C17          C18   1.361       .  D
C18        C2181   1.481       .  S
C19          H24   1.072       .  S
C19          C20   1.368       .  D
C20        C2196   1.485       .  S
C25          C26   1.542       .  S
C25          C31   1.556       .  S
C25          C29   1.545       .  S
C25        C2160   1.541       .  S
C26          H33   1.086       .  S
C26          C27   1.362       .  D
C27          C28   1.527       .  S
C27        C2121   1.482       .  S
C28          C32   1.532       .  S
C28          C30   1.527       .  S
C28          H34   1.111       .  S
C29          H35   1.078       .  S
C29          C30   1.362       .  D
C30        C2145   1.477       .  S
C31          H36   1.085       .  S
C31          C32   1.372       .  D
C32        C2133   1.489       .  S
C37          C38   1.547       .  S
C37          C43   1.554       .  S
C37          C41   1.539       .  S
C37        C2109   1.539       .  S
C38          H45   1.086       .  S
C38          C39   1.371       .  D
C39          C40   1.536       .  S
C39        C2085   1.492       .  S
C40          C44   1.528       .  S
C40          C42   1.531       .  S
C40          H46   1.110       .  S
C41          H47   1.087       .  S
C41          C42   1.355       .  D
C42        C2073   1.467       .  S
C43          H48   1.081       .  S
C43          C44   1.365       .  D
C44        C2100   1.486       .  S
O49         Cu57   1.978       .  S
O49          C59   1.274       .  A
O50         Cu57   1.971       .  S
O50          C60   1.273       .  A
O51         Cu57   1.986       .  S
O51          C61   1.275       .  A
O52         Cu57   1.989       .  S
O52          C62   1.276       .  A
O53         Cu58   2.015       .  S
O53          C62   1.276       .  A
O54         Cu58   2.011       .  S
O54          C61   1.278       .  A
O55         Cu58   2.033       .  S
O55          C60   1.282       .  A
O56         Cu58   2.028       .  S
O56          C59   1.279       .  A
Cu57        Cu58   2.376       .  S
C59        C2184   1.470       .  S
C60        C2229   1.482       .  S
C61        C2148   1.470       .  S
C62        C2076   1.464       .  S
C63          C64   1.565       .  S
C63          C69   1.542       .  S
C63          C67   1.548       .  S
C63        C2061   1.545       .  S
C64          H71   1.076       .  S
C64          C65   1.382       .  D
C65          C66   1.539       .  S
C65        C2040   1.509       .  S
C66          C70   1.522       .  S
C66          C68   1.531       .  S
C66          H72   1.107       .  S
C67          H73   1.086       .  S
C67          C68   1.359       .  D
C68        C2025   1.488       .  S
C69          H74   1.087       .  S
C69          C70   1.354       .  D
C70        C2052   1.474       .  S
C75          C76   1.539       .  S
C75          C81   1.554       .  S
C75          C79   1.552       .  S
C75        C2016   1.542       .  S
C76          H83   1.086       .  S
C76          C77   1.355       .  D
C77          C78   1.537       .  S
C77        C1989   1.477       .  S
C78          C82   1.537       .  S
C78          C80   1.533       .  S
C78          H84   1.107       .  S
C79          H85   1.086       .  S
C79          C80   1.370       .  D
C80        C1977   1.498       .  S
C81          H86   1.079       .  S
C81          C82   1.371       .  D
C82        C2001   1.501       .  S
C87          C88   1.552       .  S
C87          C93   1.548       .  S
C87          C91   1.549       .  S
C87        C1965   1.546       .  S
C88          H95   1.086       .  S
C88          C89   1.368       .  D
C89          C90   1.531       .  S
C89        C1953   1.489       .  S
C90          C94   1.533       .  S
C90          C92   1.529       .  S
C90          H96   1.111       .  S
C91          H97   1.081       .  S
C91          C92   1.361       .  D
C92        C1941   1.481       .  S
C93          H98   1.086       .  S
C93          C94   1.367       .  D
C94        C1932   1.490       .  S
C99         C100   1.554       .  S
C99         C105   1.548       .  S
C99         C103   1.548       .  S
C99        C1920   1.545       .  S
C100        H107   1.079       .  S
C100        C101   1.364       .  D
C101        C102   1.530       .  S
C101       C1905   1.481       .  S
C102        C106   1.534       .  S
C102        C104   1.531       .  S
C102        H108   1.110       .  S
C103        H109   1.086       .  S
C103        C104   1.367       .  D
C104       C1881   1.490       .  S
C105        H110   1.086       .  S
C105        C106   1.364       .  D
C106       C1893   1.490       .  S
O111       Cu119   2.007   1_554  S
O111        C121   1.278       .  A
O112       Cu119   2.005       .  S
O112        C122   1.278       .  A
O113       Cu119   2.003   1_554  S
O113        C123   1.277       .  A
O114       Cu119   1.979       .  S
O114        C124   1.274       .  A
O115       Cu120   2.044   1_556  S
O115        C124   1.282       .  A
O116       Cu120   2.046       .  S
O116        C123   1.282       .  A
O117       Cu120   2.021   1_556  S
O117        C122   1.278       .  A
O118       Cu120   2.016       .  S
O118        C121   1.278       .  A
Cu119      Cu120   2.369   1_556  S
C121       C2097   1.479       .  S
C122       C1908   1.481       .  S
C123       C2244   1.491       .  S
C124       C2037   1.494       .  S
O125       Cu133   1.996       .  S
O125        C135   1.277       .  A
O126       Cu133   1.993   1_554  S
O126        C136   1.276       .  A
O127       Cu133   1.978   1_554  S
O127        C137   1.275       .  A
O128       Cu133   1.983       .  S
O128        C138   1.275       .  A
O129       Cu134   2.018       .  S
O129        C138   1.280       .  A
O130       Cu134   2.014   1_554  S
O130        C137   1.278       .  A
O131       Cu134   2.019   1_554  S
O131        C136   1.279       .  A
O132       Cu134   2.027       .  S
O132        C135   1.279       .  A
Cu133      Cu134   2.373       .  S
C135       C1884   1.481       .  S
C136       C2124   1.471       .  S
C137       C2220   1.467       .  S
C138       C1944   1.475       .  S
O139       Cu147   1.995       .  S
O139        C149   1.277       .  A
O140       Cu147   1.994   1_554  S
O140        C150   1.277       .  A
O141       Cu147   1.988       .  S
O141        C151   1.276       .  A
O142       Cu147   1.983   1_554  S
O142        C152   1.275       .  A
O143       Cu148   2.025   1_554  S
O143        C152   1.279       .  A
O144       Cu148   2.037       .  S
O144        C151   1.281       .  A
O145       Cu148   2.034   1_554  S
O145        C150   1.280       .  A
O146       Cu148   2.035       .  S
O146        C149   1.280       .  A
Cu147      Cu148   2.370       .  S
C149       C1980   1.482       .  S
C150       C2136   1.484       .  S
C151       C1929   1.485       .  S
C152       C2172   1.475       .  S
O153       Cu161   1.987   1_554  S
O153        C163   1.276       .  A
O154       Cu161   1.988       .  S
O154        C164   1.276       .  A
O155       Cu161   1.979   1_554  S
O155        C165   1.274       .  A
O156       Cu161   1.984       .  S
O156        C166   1.276       .  A
O157       Cu162   2.025       .  S
O157        C166   1.279       .  A
O158       Cu162   2.035   1_554  S
O158        C165   1.280       .  A
O159       Cu162   2.021       .  S
O159        C164   1.278       .  A
O160       Cu162   2.016   1_554  S
O160        C163   1.279       .  A
Cu161      Cu162   2.376       .  S
C163       C2193   1.474       .  S
C164       C2049   1.470       .  S
C165       C2088   1.471       .  S
C166       C2004   1.480       .  S
O167       Cu175   2.028       .  S
O167        C177   1.280       .  A
O168       Cu175   2.023       .  S
O168        C178   1.279       .  A
O169       Cu175   2.034       .  S
O169        C179   1.280       .  A
O170       Cu175   2.038       .  S
O170        C180   1.280       .  A
O171       Cu176   2.012       .  S
O171        C180   1.278       .  A
O172       Cu176   2.011       .  S
O172        C179   1.278       .  A
O173       Cu176   1.983       .  S
O173        C178   1.275       .  A
O174       Cu176   1.988       .  S
O174        C177   1.276       .  A
Cu175      Cu176   2.371       .  S
C177       C1896   1.479       .  S
C178       C1992   1.470       .  S
C179       C2028   1.481       .  S
C180       C1956   1.486       .  S
C181        C182   1.555       .  S
C181        C187   1.546       .  S
C181        C185   1.556       .  S
C181       C1872   1.556       .  S
C182        H189   1.086       .  S
C182        C183   1.372       .  D
C183        C184   1.531       .  S
C183       C1833   1.496       .  S
C184        C188   1.535       .  S
C184        C186   1.530       .  S
C184        H190   1.111       .  S
C185        H191   1.080       .  S
C185        C186   1.362       .  D
C186       C1857   1.486       .  S
C187        H192   1.085       .  S
C187        C188   1.366       .  D
C188       C1845   1.489       .  S
C193        C194   1.556       .  S
C193        C199   1.548       .  S
C193        C197   1.549       .  S
C193       C1821   1.543       .  S
C194        H201   1.081       .  S
C194        C195   1.360       .  D
C195        C196   1.525       .  S
C195       C1785   1.483       .  S
C196        C200   1.525       .  S
C196        C198   1.530       .  S
C196        H202   1.111       .  S
C197        H203   1.086       .  S
C197        C198   1.366       .  D
C198       C1812   1.482       .  S
C199        H204   1.086       .  S
C199        C200   1.367       .  D
C200       C1797   1.481       .  S
C205        C206   1.553       .  S
C205        C211   1.548       .  S
C205        C209   1.552       .  S
C205       C1773   1.549       .  S
C206        H213   1.085       .  S
C206        C207   1.369       .  D
C207        C208   1.533       .  S
C207       C1737   1.495       .  S
C208        C212   1.535       .  S
C208        C210   1.530       .  S
C208        H214   1.109       .  S
C209        H215   1.080       .  S
C209        C210   1.359       .  D
C210       C1752   1.481       .  S
C211        H216   1.086       .  S
C211        C212   1.371       .  D
C212       C1761   1.497       .  S
C217        C218   1.549       .  S
C217        C223   1.538       .  S
C217        C221   1.554       .  S
C217       C1725   1.534       .  S
C218        H225   1.079       .  S
C218        C219   1.365       .  D
C219        C220   1.529       .  S
C219       C1692   1.484       .  S
C220        C224   1.528       .  S
C220        C222   1.536       .  S
C220        H226   1.109       .  S
C221        H227   1.084       .  S
C221        C222   1.371       .  D
C222       C1713   1.499       .  S
C223        H228   1.086       .  S
C223        C224   1.356       .  D
C224       C1701   1.473       .  S
O229       Cu237   2.029       .  S
O229        C239   1.280       .  A
O230       Cu237   2.024       .  S
O230        C240   1.280       .  A
O231       Cu237   2.018       .  S
O231        C241   1.278       .  A
O232       Cu237   2.019       .  S
O232        C242   1.279       .  A
O233       Cu238   1.996       .  S
O233        C242   1.276       .  A
O234       Cu238   1.986       .  S
O234        C241   1.276       .  A
O235       Cu238   1.982       .  S
O235        C240   1.275       .  A
O236       Cu238   1.966       .  S
O236        C239   1.274       .  A
Cu237      Cu238   2.376       .  S
C239       C1860   1.472       .  S
C240       C1689   1.476       .  S
C241       C1749   1.470       .  S
C242       C1800   1.477       .  S
C243        C244   1.555       .  S
C243        C249   1.549       .  S
C243        C247   1.554       .  S
C243       C1677   1.553       .  S
C244        H251   1.080       .  S
C244        C245   1.363       .  D
C245        C246   1.533       .  S
C245       C1665   1.492       .  S
C246        C250   1.535       .  S
C246        C248   1.534       .  S
C246        H252   1.109       .  S
C247        H253   1.085       .  S
C247        C248   1.369       .  D
C248       C1641   1.497       .  S
C249        H254   1.086       .  S
C249        C250   1.368       .  D
C250       C1653   1.496       .  S
C255        C256   1.543       .  S
C255        C261   1.560       .  S
C255        C259   1.546       .  S
C255       C1632   1.545       .  S
C256        H263   1.086       .  S
C256        C257   1.362       .  D
C257        C258   1.533       .  S
C257       C1617   1.480       .  S
C258        C262   1.531       .  S
C258        C260   1.537       .  S
C258        H264   1.110       .  S
C259        H265   1.086       .  S
C259        C260   1.365       .  D
C260       C1605   1.490       .  S
C261        H266   1.081       .  S
C261        C262   1.369       .  D
C262       C1593   1.492       .  S
C267        C268   1.550       .  S
C267        C273   1.547       .  S
C267        C271   1.541       .  S
C267       C1581   1.531       .  S
C268        H275   1.080       .  S
C268        C269   1.367       .  D
C269        C270   1.533       .  S
C269       C1557   1.486       .  S
C270        C274   1.536       .  S
C270        C272   1.523       .  S
C270        H276   1.109       .  S
C271        H277   1.086       .  S
C271        C272   1.353       .  D
C272       C1548   1.471       .  S
C273        H278   1.084       .  S
C273        C274   1.369       .  D
C274       C1569   1.495       .  S
C279        C280   1.547       .  S
C279        C285   1.545       .  S
C279        C283   1.558       .  S
C279       C1533   1.545       .  S
C280        H287   1.086       .  S
C280        C281   1.364       .  D
C281        C282   1.532       .  S
C281       C1521   1.484       .  S
C282        C286   1.528       .  S
C282        C284   1.540       .  S
C282        H288   1.109       .  S
C283        H289   1.079       .  S
C283        C284   1.373       .  D
C284       C1509   1.499       .  S
C285        H290   1.086       .  S
C285        C286   1.359       .  D
C286       C1497   1.484       .  S
O291       Cu299   2.032       .  S
O291        C301   1.281       .  A
O292       Cu299   2.033   1_545  S
O292        C302   1.280       .  A
O293       Cu299   2.039   1_545  S
O293        C303   1.281       .  A
O294       Cu299   2.048       .  S
O294        C304   1.282       .  A
O295       Cu300   2.020       .  S
O295        C304   1.280       .  A
O296       Cu300   2.022   1_545  S
O296        C303   1.279       .  A
O297       Cu300   1.978   1_545  S
O297        C302   1.274       .  A
O298       Cu300   1.980       .  S
O298        C301   1.274       .  A
Cu299      Cu300   2.368       .  S
C301       C1512   1.487       .  S
C302       C1788   1.473       .  S
C303       C1836   1.489       .  S
C304       C1644   1.498       .  S
O305       Cu313   1.987       .  S
O305        C315   1.275       .  A
O306       Cu313   1.996   1_545  S
O306        C316   1.276       .  A
O307       Cu313   1.993   1_545  S
O307        C317   1.276       .  A
O308       Cu313   1.989       .  S
O308        C318   1.275       .  A
O309       Cu314   2.021       .  S
O309        C318   1.278       .  A
O310       Cu314   2.026   1_545  S
O310        C317   1.280       .  A
O311       Cu314   2.046   1_545  S
O311        C316   1.282       .  A
O312       Cu314   2.041       .  S
O312        C315   1.281       .  A
Cu313      Cu314   2.373       .  S
C315       C1500   1.475       .  S
C316       C1740   1.493       .  S
C317       C1848   1.483       .  S
C318       C1545   1.466       .  S
O319       Cu327   1.993   1_545  S
O319        C329   1.277       .  A
O320       Cu327   1.991       .  S
O320        C330   1.275       .  A
O321       Cu327   1.989   1_545  S
O321        C331   1.275       .  A
O322       Cu327   1.982       .  S
O322        C332   1.274       .  A
O323       Cu328   2.024       .  S
O323        C332   1.280       .  A
O324       Cu328   2.023   1_545  S
O324        C331   1.278       .  A
O325       Cu328   2.038       .  S
O325        C330   1.280       .  A
O326       Cu328   2.033   1_545  S
O326        C329   1.280       .  A
Cu327      Cu328   2.371       .  S
C329       C1764   1.489       .  S
C330       C1620   1.477       .  S
C331       C1704   1.467       .  S
C332       C1572   1.487       .  S
O333       Cu341   1.975       .  S
O333        C343   1.274       .  A
O334       Cu341   1.969   1_545  S
O334        C344   1.272       .  A
O335       Cu341   1.993       .  S
O335        C345   1.277       .  A
O336       Cu341   1.988   1_545  S
O336        C346   1.276       .  A
O337       Cu342   2.028       .  S
O337        C346   1.279       .  A
O338       Cu342   2.027   1_565  S
O338        C345   1.278       .  A
O339       Cu342   2.054       .  S
O339        C344   1.284       .  A
O340       Cu342   2.050   1_565  S
O340        C343   1.282       .  A
Cu341      Cu342   2.372   1_565  S
C343       C1668   1.482       .  S
C344       C1716   1.485       .  S
C345       C1608   1.476       .  S
C346       C1809   1.476       .  S
O347       Cu355   2.030       .  S
O347        C357   1.279       .  A
O348       Cu355   2.027       .  S
O348        C358   1.279       .  A
O349       Cu355   2.038       .  S
O349        C359   1.281       .  A
O350       Cu355   2.020       .  S
O350        C360   1.279       .  A
O351       Cu356   1.988       .  S
O351        C360   1.275       .  A
O352       Cu356   1.992       .  S
O352        C359   1.277       .  A
O353       Cu356   2.002       .  S
O353        C358   1.278       .  A
O354       Cu356   2.004       .  S
O354        C357   1.276       .  A
Cu355      Cu356   2.374       .  S
C357       C1524   1.476       .  S
C358       C1596   1.481       .  S
C359       C1656   1.485       .  S
C360       C1560   1.475       .  S
C361        C362   1.543       .  S
C361        C367   1.552       .  S
C361        C365   1.559       .  S
C361       C1488   1.546       .  S
C362        H369   1.086       .  S
C362        C363   1.363       .  D
C363        C364   1.532       .  S
C363       C1473   1.484       .  S
C364        C368   1.523       .  S
C364        C366   1.528       .  S
C364        H370   1.111       .  S
C365        H371   1.085       .  S
C365        C366   1.368       .  D
C366       C1449   1.490       .  S
C367        H372   1.086       .  S
C367        C368   1.366       .  D
C368       C1461   1.482       .  S
C373        C374   1.543       .  S
C373        C379   1.548       .  S
C373        C377   1.550       .  S
C373       C1437   1.533       .  S
C374        H381   1.086       .  S
C374        C375   1.361       .  D
C375        C376   1.532       .  S
C375       C1425   1.482       .  S
C376        C380   1.530       .  S
C376        C378   1.533       .  S
C376        H382   1.111       .  S
C377        H383   1.086       .  S
C377        C378   1.363       .  D
C378       C1413   1.487       .  S
C379        H384   1.078       .  S
C379        C380   1.362       .  D
C380       C1401   1.478       .  S
C385        C386   1.549       .  S
C385        C391   1.553       .  S
C385        C389   1.543       .  S
C385       C1389   1.548       .  S
C386        H393   1.079       .  S
C386        C387   1.363       .  D
C387        C388   1.535       .  S
C387       C1353   1.492       .  S
C388        C392   1.540       .  S
C388        C390   1.536       .  S
C388        H394   1.110       .  S
C389        H395   1.086       .  S
C389        C390   1.364       .  D
C390       C1380   1.491       .  S
C391        H396   1.086       .  S
C391        C392   1.371       .  D
C392       C1368   1.497       .  S
C397        C398   1.549       .  S
C397        C403   1.550       .  S
C397        C401   1.547       .  S
C397       C1341   1.536       .  S
C398        H405   1.085       .  S
C398        C399   1.368       .  D
C399        C400   1.534       .  S
C399       C1317   1.487       .  S
C400        C404   1.529       .  S
C400        C402   1.528       .  S
C400        H406   1.111       .  S
C401        H407   1.086       .  S
C401        C402   1.364       .  D
C402       C1305   1.485       .  S
C403        H408   1.080       .  S
C403        C404   1.358       .  D
C404       C1329   1.481       .  S
O409       Cu417   2.025   1_655  S
O409        C419   1.278       .  A
O410       Cu417   2.020       .  S
O410        C420   1.278       .  A
O411       Cu417   2.052   1_655  S
O411        C421   1.283       .  A
O412       Cu417   2.049       .  S
O412        C422   1.283       .  A
O413       Cu418   1.990       .  S
O413        C422   1.275       .  A
O414       Cu418   1.972   1_655  S
O414        C421   1.274       .  A
O415       Cu418   1.991       .  S
O415        C420   1.276       .  A
O416       Cu418   1.992   1_655  S
O416        C419   1.277       .  A
Cu417      Cu418   2.372       .  S
C419       C1308   1.475       .  S
C420       C1296   1.472       .  S
C421       C1356   1.482       .  S
C422       C1284   1.492       .  S
O423       Cu431   2.034       .  S
O423        C433   1.280       .  A
O424       Cu431   2.040   1_655  S
O424        C434   1.282       .  A
O425       Cu431   2.033   1_655  S
O425        C435   1.280       .  A
O426       Cu431   2.030       .  S
O426        C436   1.279       .  A
O427       Cu432   1.981       .  S
O427        C436   1.276       .  A
O428       Cu432   1.998   1_655  S
O428        C435   1.277       .  A
O429       Cu432   1.982   1_655  S
O429        C434   1.274       .  A
O430       Cu432   1.985       .  S
O430        C433   1.276       .  A
Cu431      Cu432   2.373       .  S
C433       C1269   1.480       .  S
C434       C1320   1.483       .  S
C435       C1452   1.481       .  S
C436       C1260   1.475       .  S
O437       Cu445   2.035       .  S
O437        C447   1.280       .  A
O438       Cu445   2.035   1_655  S
O438        C448   1.280       .  A
O439       Cu445   2.028       .  S
O439        C449   1.280       .  A
O440       Cu445   2.029   1_655  S
O440        C450   1.280       .  A
O441       Cu446   1.978   1_655  S
O441        C450   1.275       .  A
O442       Cu446   1.979       .  S
O442        C449   1.275       .  A
O443       Cu446   1.998   1_655  S
O443        C448   1.277       .  A
O444       Cu446   1.998       .  S
O444        C447   1.277       .  A
Cu445      Cu446   2.370       .  S
C447       C1233   1.484       .  S
C448       C1377   1.484       .  S
C449       C1245   1.477       .  S
C450       C1428   1.477       .  S
O451       Cu459   2.039   1_655  S
O451        C461   1.281       .  A
O452       Cu459   2.036       .  S
O452        C462   1.281       .  A
O453       Cu459   2.017   1_655  S
O453        C463   1.278       .  A
O454       Cu459   2.019       .  S
O454        C464   1.278       .  A
O455       Cu460   1.975       .  S
O455        C464   1.274       .  A
O456       Cu460   1.980   1_655  S
O456        C463   1.275       .  A
O457       Cu460   1.987       .  S
O457        C462   1.277       .  A
O458       Cu460   1.994   1_655  S
O458        C461   1.276       .  A
Cu459      Cu460   2.372       .  S
C461       C1416   1.481       .  S
C462       C1224   1.487       .  S
C463       C1476   1.474       .  S
C464       C1212   1.470       .  S
O465       Cu473   1.965       .  S
O465        C475   1.272       .  A
O466       Cu473   1.969       .  S
O466        C476   1.273       .  A
O467       Cu473   2.008       .  S
O467        C477   1.278       .  A
O468       Cu473   2.009       .  S
O468        C478   1.280       .  A
O469       Cu474   2.025       .  S
O469        C478   1.278       .  A
O470       Cu474   2.019       .  S
O470        C477   1.277       .  A
O471       Cu474   2.026       .  S
O471        C476   1.280       .  A
O472       Cu474   2.034       .  S
O472        C475   1.281       .  A
Cu473      Cu474   2.374       .  S
C475       C1404   1.473       .  S
C476       C1332   1.474       .  S
C477       C1464   1.473       .  S
C478       C1365   1.486       .  S
C479        C480   1.544       .  S
C479        C485   1.553       .  S
C479        C483   1.549       .  S
C479       C1200   1.547       .  S
C480        H487   1.086       .  S
C480        C481   1.363       .  D
C481        C482   1.533       .  S
C481       C1188   1.488       .  S
C482        C486   1.537       .  S
C482        C484   1.539       .  S
C482        H488   1.108       .  S
C483        H489   1.086       .  S
C483        C484   1.365       .  D
C484       C1272   1.490       .  S
C485        H490   1.082       .  S
C485        C486   1.370       .  D
C486       C1221   1.498       .  S
C491        C492   1.553       .  S
C491        C497   1.546       .  S
C491        C495   1.537       .  S
C491       C1173   1.539       .  S
C492        H499   1.081       .  S
C492        C493   1.361       .  D
C493        C494   1.533       .  S
C493       C1248   1.488       .  S
C494        C498   1.542       .  S
C494        C496   1.538       .  S
C494        H500   1.110       .  S
C495        H501   1.086       .  S
C495        C496   1.360       .  D
C496       C1293   1.479       .  S
C497        H502   1.086       .  S
C497        C498   1.370       .  D
C498       C1161   1.494       .  S
C503        C504   1.542       .  S
C503        C509   1.542       .  S
C503        C507   1.558       .  S
C503       C1149   1.542       .  S
C504        H511   1.086       .  S
C504        C505   1.363       .  D
C505        C506   1.538       .  S
C505       C1140   1.486       .  S
C506        C510   1.536       .  S
C506        C508   1.539       .  S
C506        H512   1.110       .  S
C507        H513   1.081       .  S
C507        C508   1.368       .  D
C508       C1281   1.498       .  S
C509        H514   1.086       .  S
C509        C510   1.362       .  D
C510       C1257   1.487       .  S
C515        C516   1.549       .  S
C515        C521   1.551       .  S
C515        C519   1.545       .  S
C515       C1128   1.545       .  S
C516        H523   1.082       .  S
C516        C517   1.358       .  D
C517        C518   1.530       .  S
C517       C1209   1.476       .  S
C518        C522   1.536       .  S
C518        C520   1.534       .  S
C518        H524   1.109       .  S
C519        H525   1.086       .  S
C519        C520   1.367       .  D
C520       C1236   1.491       .  S
C521        H526   1.085       .  S
C521        C522   1.371       .  D
C522       C1113   1.496       .  S
O527       Cu535   2.033       .  S
O527        C537   1.280       .  A
O528       Cu535   2.040       .  S
O528        C538   1.282       .  A
O529       Cu535   2.027       .  S
O529        C539   1.279       .  A
O530       Cu535   2.028       .  S
O530        C540   1.279       .  A
O531       Cu536   1.995       .  S
O531        C540   1.277       .  A
O532       Cu536   1.996       .  S
O532        C539   1.278       .  A
O533       Cu536   1.985       .  S
O533        C538   1.275       .  A
O534       Cu536   1.980       .  S
O534        C537   1.275       .  A
Cu535      Cu536   2.370       .  S
C537       C1137   1.476       .  S
C538       C1116   1.484       .  S
C539       C1164   1.485       .  S
C540       C1185   1.479       .  S
C541       C1101   1.567       .  S
C541       C1125   1.581       .  S
C541       C1728   1.573       .  S
C541       C2112   1.577       .  S
C542       C1089   1.570       .  S
C542       C1440   1.560       .  S
C542       C1824   1.582       .  S
C542       C2208   1.574       .  S
C543       C1080   1.585       .  S
C543       C1176   1.570       .  S
C543       C1629   1.587       .  S
C543       C2256   1.566       .  S
C544       C1065   1.587       .  S
C544       C1197   1.588       .  S
C544       C1776   1.580       .  S
C544       C2064   1.575       .  S
C545       C1053   1.582       .  S
C545       C1485   1.587       .  S
C545       C1869   1.590       .  S
C545       C2013   1.573       .  S
C546       C1041   1.581       .  S
C546       C1392   1.583       .  S
C546       C1680   1.590       .  S
C546       C2157   1.576       .  S
C547       C1029   1.573       .  S
C547       C1152   1.576       .  S
C547       C1584   1.563       .  S
C547       C1917   1.579       .  S
C548        C549   1.545       .  S
C548        C554   1.555       .  S
C548        C552   1.550       .  S
C548       C1104   1.536       .  S
C549        H556   1.086       .  S
C549        C550   1.363       .  D
C550        C551   1.526       .  S
C550       C1017   1.483       .  S
C551        C555   1.522       .  S
C551        C553   1.534       .  S
C551        H557   1.108       .  S
C552        H558   1.084       .  S
C552        C553   1.368       .  D
C553       C1008   1.496       .  S
C554        H559   1.081       .  S
C554        C555   1.359       .  D
C555        C993   1.478       .  S
C560        C561   1.542       .  S
C560        C566   1.563       .  S
C560        C564   1.540       .  S
C560       C1068   1.548       .  S
C561        H568   1.086       .  S
C561        C562   1.364       .  D
C562        C563   1.531       .  S
C562        C981   1.486       .  S
C563        C567   1.539       .  S
C563        C565   1.533       .  S
C563        H569   1.110       .  S
C564        H570   1.086       .  S
C564        C565   1.358       .  D
C565        C972   1.475       .  S
C566        H571   1.079       .  S
C566        C567   1.378       .  D
C567        C957   1.511       .  S
C572        C573   1.544       .  S
C572        C578   1.556       .  S
C572        C576   1.541       .  S
C572       C1092   1.536       .  S
C573        H580   1.086       .  S
C573        C574   1.365       .  D
C574        C575   1.536       .  S
C574        C948   1.484       .  S
C575        C579   1.532       .  S
C575        C577   1.530       .  S
C575        H581   1.109       .  S
C576        H582   1.086       .  S
C576        C577   1.358       .  D
C577        C933   1.474       .  S
C578        H583   1.080       .  S
C578        C579   1.367       .  D
C579        C921   1.494       .  S
C584        C585   1.550       .  S
C584        C590   1.551       .  S
C584        C588   1.550       .  S
C584       C1077   1.551       .  S
C585        H592   1.071       .  S
C585        C586   1.367       .  D
C586        C587   1.530       .  S
C586        C897   1.491       .  S
C587        C591   1.525       .  S
C587        C589   1.533       .  S
C587        H593   1.110       .  S
C588        H594   1.085       .  S
C588        C589   1.368       .  D
C589        C912   1.491       .  S
C590        H595   1.086       .  S
C590        C591   1.363       .  D
C591        C885   1.483       .  S
C596        C597   1.544       .  S
C596        C602   1.554       .  S
C596        C600   1.554       .  S
C596       C1044   1.546       .  S
C597        H604   1.086       .  S
C597        C598   1.360       .  D
C598        C599   1.527       .  S
C598        C849   1.478       .  S
C599        C603   1.529       .  S
C599        C601   1.536       .  S
C599        H605   1.111       .  S
C600        H606   1.085       .  S
C600        C601   1.372       .  D
C601        C861   1.499       .  S
C602        H607   1.080       .  S
C602        C603   1.365       .  D
C603        C873   1.483       .  S
O608       Cu616   2.011       .  S
O608        C618   1.278       .  A
O609       Cu616   2.020   1_645  S
O609        C619   1.277       .  A
O610       Cu616   2.033   1_655  S
O610        C620   1.280       .  A
O611       Cu616   2.033   1_545  S
O611        C621   1.282       .  A
O612       Cu617   1.975   1_545  S
O612        C621   1.273       .  A
O613       Cu617   1.987   1_655  S
O613        C620   1.274       .  A
O614       Cu617   1.994   1_645  S
O614        C619   1.277       .  A
O615       Cu617   1.996       .  S
O615        C618   1.277       .  A
Cu616      Cu617   2.370       .  S
C618        C900   1.485       .  S
C619        C936   1.472       .  S
C620        C852   1.472       .  S
C621       C1005   1.487       .  S
C622        C623   1.544       .  S
C622        C628   1.543       .  S
C622        C626   1.552       .  S
C622       C1032   1.532       .  S
C623        H630   1.086       .  S
C623        C624   1.360       .  D
C624        C625   1.528       .  S
C624        C825   1.476       .  S
C625        C629   1.532       .  S
C625        C627   1.530       .  S
C625        H631   1.111       .  S
C626        H632   1.080       .  S
C626        C627   1.364       .  D
C627        C813   1.481       .  S
C628        H633   1.086       .  S
C628        C629   1.362       .  D
C629        C840   1.480       .  S
O634       Cu642   2.036   1_554  S
O634        C644   1.280       .  A
O635       Cu642   2.043   1_545  S
O635        C645   1.282       .  A
O636       Cu642   2.020   1_544  S
O636        C646   1.279       .  A
O637       Cu642   2.018       .  S
O637        C647   1.278       .  A
O638       Cu643   1.975       .  S
O638        C647   1.274       .  A
O639       Cu643   1.971   1_544  S
O639        C646   1.274       .  A
O640       Cu643   2.011   1_545  S
O640        C645   1.278       .  A
O641       Cu643   2.011   1_554  S
O641        C644   1.277       .  A
Cu642      Cu643   2.373       .  S
C644        C888   1.480       .  S
C645        C960   1.495       .  S
C646        C996   1.475       .  S
C647        C816   1.466       .  S
C648        C649   1.554       .  S
C648        C654   1.553       .  S
C648        C652   1.549       .  S
C648       C1056   1.552       .  S
C649        H656   1.086       .  S
C649        C650   1.370       .  D
C650        C651   1.532       .  S
C650        C792   1.493       .  S
C651        C655   1.532       .  S
C651        C653   1.524       .  S
C651        H657   1.111       .  S
C652        H658   1.086       .  S
C652        C653   1.362       .  D
C653        C777   1.482       .  S
C654        H659   1.077       .  S
C654        C655   1.368       .  D
C655        C801   1.492       .  S
O660       Cu668   2.021   1_654  S
O660        C670   1.279       .  A
O661       Cu668   2.025       .  S
O661        C671   1.279       .  A
O662       Cu668   2.033   1_655  S
O662        C672   1.280       .  A
O663       Cu668   2.032   1_554  S
O663        C673   1.280       .  A
O664       Cu669   1.995   1_554  S
O664        C673   1.277       .  A
O665       Cu669   2.000   1_655  S
O665        C672   1.276       .  A
O666       Cu669   1.984       .  S
O666        C671   1.274       .  A
O667       Cu669   2.000   1_654  S
O667        C670   1.278       .  A
Cu668      Cu669   2.375       .  S
C670        C924   1.484       .  S
C671        C969   1.467       .  S
C672        C780   1.478       .  S
C673       C1020   1.479       .  S
C674        C675   1.543       .  S
C674        C680   1.557       .  S
C674        C678   1.545       .  S
C674        C765   1.545       .  S
C675        H682   1.086       .  S
C675        C676   1.364       .  D
C676        C677   1.534       .  S
C676        C729   1.489       .  S
C677        C681   1.530       .  S
C677        C679   1.536       .  S
C677        H683   1.110       .  S
C678        H684   1.085       .  S
C678        C679   1.368       .  D
C679        C753   1.489       .  S
C680        H685   1.081       .  S
C680        C681   1.365       .  D
C681        C741   1.484       .  S
O686       Cu694   2.026   1_655  S
O686        C696   1.279       .  A
O687       Cu694   2.025   1_554  S
O687        C697   1.279       .  A
O688       Cu694   2.028   1_654  S
O688        C698   1.280       .  A
O689       Cu694   2.021       .  S
O689        C699   1.278       .  A
O690       Cu695   1.980       .  S
O690        C699   1.276       .  A
O691       Cu695   1.988   1_654  S
O691        C698   1.276       .  A
O692       Cu695   1.988   1_554  S
O692        C697   1.276       .  A
O693       Cu695   1.994   1_655  S
O693        C696   1.276       .  A
Cu694      Cu695   2.373       .  S
C696        C744   1.475       .  S
C697        C909   1.477       .  S
C698        C876   1.477       .  S
C699        C837   1.470       .  S
O700       Cu708   2.047   1_545  S
O700        C710   1.283       .  A
O701       Cu708   2.050   1_554  S
O701        C711   1.283       .  A
O702       Cu708   2.015   1_544  S
O702        C712   1.277       .  A
O703       Cu708   2.011       .  S
O703        C713   1.278       .  A
O704       Cu709   1.997       .  S
O704        C713   1.277       .  A
O705       Cu709   1.992   1_544  S
O705        C712   1.277       .  A
O706       Cu709   1.989   1_554  S
O706        C711   1.276       .  A
O707       Cu709   1.993   1_545  S
O707        C710   1.275       .  A
Cu708      Cu709   2.370       .  S
C710        C789   1.489       .  S
C711        C864   1.491       .  S
C712        C945   1.473       .  S
C713        C732   1.479       .  S
O714       Cu722   2.026   1_645  S
O714        C724   1.280       .  A
O715       Cu722   2.019       .  S
O715        C725   1.278       .  A
O716       Cu722   2.023   1_655  S
O716        C726   1.279       .  A
O717       Cu722   2.026   1_545  S
O717        C727   1.279       .  A
O718       Cu723   1.998   1_545  S
O718        C727   1.276       .  A
O719       Cu723   1.997   1_655  S
O719        C726   1.278       .  A
O720       Cu723   1.996       .  S
O720        C725   1.275       .  A
O721       Cu723   1.994   1_645  S
O721        C724   1.276       .  A
Cu722      Cu723   2.372       .  S
C724        C804   1.485       .  S
C725        C828   1.468       .  S
C726        C756   1.481       .  S
C727        C984   1.476       .  S
C728        C768   1.577       .  S
C728       C1344   1.571       .  S
C728       C1536   1.584       .  S
C728       C1968   1.578       .  S
C729        C730   1.406       .  A
C729        C734   1.413       .  A
C730        C731   1.401       .  A
C730        H735   1.084       .  S
C731        C732   1.412       .  A
C731        C738   1.444       .  S
C732        C733   1.401       .  A
C733        C734   1.397       .  A
C733        H736   1.085       .  S
C734        C737   1.441       .  S
C737        N739   1.156       .  T
C738        N740   1.157       .  T
C741        C742   1.405       .  A
C741        C746   1.410       .  A
C742        C743   1.407       .  A
C742        H747   1.084       .  S
C743        C744   1.412       .  A
C743        C750   1.443       .  S
C744        C745   1.398       .  A
C745        C746   1.396       .  A
C745        H748   1.086       .  S
C746        C749   1.440       .  S
C749        N751   1.156       .  T
C750        N752   1.157       .  T
C753        C754   1.405       .  A
C753        C758   1.415       .  A
C754        C755   1.398       .  A
C754        H759   1.085       .  S
C755        C756   1.411       .  A
C755        C762   1.445       .  S
C756        C757   1.403       .  A
C757        C758   1.405       .  A
C757        H760   1.085       .  S
C758        C761   1.441       .  S
C761        N763   1.157       .  T
C762        N764   1.157   1_655  T
C765        C766   1.406       .  A
C765        C770   1.419       .  A
C766        C767   1.403       .  A
C766        H771   1.077       .  S
C767        C768   1.430       .  A
C767        C774   1.445       .  S
C768        C769   1.413       .  A
C769        C770   1.401       .  A
C769        H772   1.079       .  S
C770        C773   1.445       .  S
C773        N775   1.157       .  T
C774        N776   1.158       .  T
C777        C778   1.405       .  A
C777        C782   1.408       .  A
C778        C779   1.406       .  A
C778        H783   1.085       .  S
C779        C780   1.410       .  A
C779        C786   1.444       .  S
C780        C781   1.403       .  A
C781        C782   1.400       .  A
C781        H784   1.085       .  S
C782        C785   1.443       .  S
C785        N787   1.157       .  T
C786        N788   1.157       .  T
C789        C790   1.406       .  A
C789        C794   1.415       .  A
C790        C791   1.409       .  A
C790        H795   1.084       .  S
C791        C792   1.414       .  A
C791        C798   1.443       .  S
C792        C793   1.403       .  A
C793        C794   1.399       .  A
C793        H796   1.085       .  S
C794        C797   1.445       .  S
C797        N799   1.157       .  T
C798        N800   1.157       .  T
C801        C802   1.404       .  A
C801        C806   1.414       .  A
C802        C803   1.397       .  A
C802        H807   1.085       .  S
C803        C804   1.414       .  A
C803        C810   1.445       .  S
C804        C805   1.405       .  A
C805        C806   1.404       .  A
C805        H808   1.085       .  S
C806        C809   1.443       .  S
C809        N811   1.157       .  T
C810        N812   1.157   1_545  T
C813        C814   1.401       .  A
C813        C818   1.414       .  A
C814        C815   1.390       .  A
C814        H819   1.080       .  S
C815        C816   1.408       .  A
C815        C822   1.446       .  S
C816        C817   1.403       .  A
C817        C818   1.403       .  A
C817        H820   1.085       .  S
C818        C821   1.444       .  S
C821        N823   1.157       .  T
C822        N824   1.157       .  T
C825        C826   1.403       .  A
C825        C830   1.408       .  A
C826        C827   1.401       .  A
C826        H831   1.084       .  S
C827        C828   1.408       .  A
C827        C834   1.444       .  S
C828        C829   1.403       .  A
C829        C830   1.400       .  A
C829        H832   1.085       .  S
C830        C833   1.443       .  S
C833        N835   1.157       .  T
C834        N836   1.157       .  T
C837        C838   1.403       .  A
C837        C842   1.407       .  A
C838        C839   1.405       .  A
C838        H843   1.085       .  S
C839        C840   1.415       .  A
C839        C846   1.444       .  S
C840        C841   1.400       .  A
C841        C842   1.391       .  A
C841        H844   1.082       .  S
C842        C845   1.445       .  S
C845        N847   1.157       .  T
C846        N848   1.157       .  T
C849        C850   1.403       .  A
C849        C854   1.409       .  A
C850        C851   1.403       .  A
C850        H855   1.085       .  S
C851        C852   1.410       .  A
C851        C858   1.444       .  S
C852        C853   1.402       .  A
C853        C854   1.399       .  A
C853        H856   1.085       .  S
C854        C857   1.444       .  S
C857        N859   1.157       .  T
C858        N860   1.157   1_655  T
C861        C862   1.404       .  A
C861        C866   1.416       .  A
C862        C863   1.396       .  A
C862        H867   1.085       .  S
C863        C864   1.414       .  A
C863        C870   1.446       .  S
C864        C865   1.408       .  A
C865        C866   1.412       .  A
C865        H868   1.084       .  S
C866        C869   1.442       .  S
C869        N871   1.157       .  T
C870        N872   1.157       .  T
C873        C874   1.402       .  A
C873        C878   1.414       .  A
C874        C875   1.398       .  A
C874        H879   1.085       .  S
C875        C876   1.410       .  A
C875        C882   1.443       .  S
C876        C877   1.402       .  A
C877        C878   1.404       .  A
C877        H880   1.085       .  S
C878        C881   1.443       .  S
C881        N883   1.157       .  T
C882        N884   1.156   1_655  T
C885        C886   1.400       .  A
C885        C890   1.412       .  A
C886        C887   1.403       .  A
C886        H891   1.085       .  S
C887        C888   1.411       .  A
C887        C894   1.442       .  S
C888        C889   1.404       .  A
C889        C890   1.406       .  A
C889        H892   1.085       .  S
C890        C893   1.444       .  S
C893        N895   1.157       .  T
C894        N896   1.157       .  T
C897        C898   1.405       .  A
C897        C902   1.414       .  A
C898        C899   1.398       .  A
C898        H903   1.084       .  S
C899        C900   1.413       .  A
C899        C906   1.444       .  S
C900        C901   1.405       .  A
C901        C902   1.402       .  A
C901        H904   1.085       .  S
C902        C905   1.444       .  S
C905        N907   1.157       .  T
C906        N908   1.157       .  T
C909        C910   1.404       .  A
C909        C914   1.410       .  A
C910        C911   1.405       .  A
C910        H915   1.085       .  S
C911        C912   1.417       .  A
C911        C918   1.443       .  S
C912        C913   1.403       .  A
C913        C914   1.393       .  A
C913        H916   1.082       .  S
C914        C917   1.446       .  S
C917        N919   1.157   1_554  T
C918        N920   1.157       .  T
C921        C922   1.408       .  A
C921        C926   1.414       .  A
C922        C923   1.405       .  A
C922        H927   1.084       .  S
C923        C924   1.413       .  A
C923        C930   1.443       .  S
C924        C925   1.402       .  A
C925        C926   1.397       .  A
C925        H928   1.085       .  S
C926        C929   1.440       .  S
C929        N931   1.156       .  T
C930        N932   1.157       .  T
C933        C934   1.397       .  A
C933        C938   1.410       .  A
C934        C935   1.391       .  A
C934        H939   1.086       .  S
C935        C936   1.409       .  A
C935        C942   1.440       .  S
C936        C937   1.405       .  A
C937        C938   1.406       .  A
C937        H940   1.084       .  S
C938        C941   1.443       .  S
C941        N943   1.157       .  T
C942        N944   1.155   1_655  T
C945        C946   1.399       .  A
C945        C950   1.411       .  A
C946        C947   1.393       .  A
C946        H951   1.086       .  S
C947        C948   1.412       .  A
C947        C954   1.442       .  S
C948        C949   1.407       .  A
C949        C950   1.405       .  A
C949        H952   1.084       .  S
C950        C953   1.443       .  S
C953        N955   1.157       .  T
C954        N956   1.156       .  T
C957        C958   1.408       .  A
C957        C962   1.419       .  A
C958        C959   1.402       .  A
C958        H963   1.081       .  S
C959        C960   1.413       .  A
C959        C966   1.446       .  S
C960        C961   1.406       .  A
C961        C962   1.411       .  A
C961        H964   1.084       .  S
C962        C965   1.443       .  S
C965        N967   1.157       .  T
C966        N968   1.157       .  T
C969        C970   1.401       .  A
C969        C974   1.408       .  A
C970        C971   1.398       .  A
C970        H975   1.085       .  S
C971        C972   1.408       .  A
C971        C978   1.444       .  S
C972        C973   1.402       .  A
C973        C974   1.402       .  A
C973        H976   1.085       .  S
C974        C977   1.443       .  S
C977        N979   1.157       .  T
C978        N980   1.157       .  T
C981        C982   1.404       .  A
C981        C986   1.414       .  A
C982        C983   1.400       .  A
C982        H987   1.085       .  S
C983        C984   1.410       .  A
C983        C990   1.445       .  S
C984        C985   1.402       .  A
C985        C986   1.403       .  A
C985        H988   1.085       .  S
C986        C989   1.443       .  S
C989        N991   1.157       .  T
C990        N992   1.157       .  T
C993        C994   1.400       .  A
C993        C998   1.409       .  A
C994        C995   1.389       .  A
C994        H999   1.085       .  S
C995        C996   1.414       .  A
C995       C1002   1.447       .  S
C996        C997   1.406       .  A
C997        C998   1.404       .  A
C997       H1000   1.084       .  S
C998       C1001   1.443       .  S
C1001      N1003   1.157       .  T
C1002      N1004   1.158       .  T
C1005      C1006   1.406       .  A
C1005      C1010   1.416       .  A
C1006      C1007   1.407       .  A
C1006      H1011   1.084       .  S
C1007      C1008   1.418       .  A
C1007      C1014   1.443       .  S
C1008      C1009   1.403       .  A
C1009      C1010   1.391       .  A
C1009      H1012   1.084       .  S
C1010      C1013   1.446       .  S
C1013      N1015   1.158       .  T
C1014      N1016   1.157       .  T
C1017      C1018   1.406       .  A
C1017      C1022   1.410       .  A
C1018      C1019   1.406       .  A
C1018      H1023   1.085       .  S
C1019      C1020   1.411       .  A
C1019      C1026   1.442       .  S
C1020      C1021   1.403       .  A
C1021      C1022   1.396       .  A
C1021      H1024   1.085       .  S
C1022      C1025   1.444       .  S
C1025      N1027   1.157       .  T
C1026      N1028   1.157       .  T
C1029      C1030   1.416       .  A
C1029      C1034   1.427       .  A
C1030      C1031   1.395       .  A
C1030      H1035   1.080       .  S
C1031      C1032   1.414       .  A
C1031      C1038   1.447       .  S
C1032      C1033   1.405       .  A
C1033      C1034   1.398       .  A
C1033      H1036   1.076       .  S
C1034      C1037   1.444       .  S
C1037      N1039   1.157       .  T
C1038      N1040   1.157       .  T
C1041      C1042   1.418       .  A
C1041      C1046   1.429       .  A
C1042      C1043   1.401       .  A
C1042      H1047   1.077       .  S
C1043      C1044   1.415       .  A
C1043      C1050   1.446       .  S
C1044      C1045   1.410       .  A
C1045      C1046   1.407       .  A
C1045      H1048   1.076       .  S
C1046      C1049   1.446       .  S
C1049      N1051   1.157       .  T
C1050      N1052   1.157       .  T
C1053      C1054   1.415       .  A
C1053      C1058   1.435       .  A
C1054      C1055   1.406       .  A
C1054      H1059   1.085       .  S
C1055      C1056   1.423       .  A
C1055      C1062   1.439       .  S
C1056      C1057   1.406       .  A
C1057      C1058   1.403       .  A
C1057      H1060   1.086       .  S
C1058      C1061   1.444       .  S
C1061      N1063   1.158       .  T
C1062      N1064   1.157       .  T
C1065      C1066   1.417       .  A
C1065      C1070   1.432       .  A
C1066      C1067   1.404       .  A
C1066      H1071   1.079       .  S
C1067      C1068   1.420       .  A
C1067      C1074   1.446       .  S
C1068      C1069   1.405       .  A
C1069      C1070   1.406       .  A
C1069      H1072   1.077       .  S
C1070      C1073   1.444       .  S
C1073      N1075   1.157       .  T
C1074      N1076   1.157       .  T
C1077      C1078   1.406       .  A
C1077      C1082   1.425       .  A
C1078      C1079   1.400       .  A
C1078      H1083   1.086       .  S
C1079      C1080   1.433       .  A
C1079      C1086   1.444       .  S
C1080      C1081   1.415       .  A
C1081      C1082   1.405       .  A
C1081      H1084   1.085       .  S
C1082      C1085   1.440       .  S
C1085      N1087   1.158       .  T
C1086      N1088   1.158       .  T
C1089      C1090   1.416       .  A
C1089      C1094   1.428       .  A
C1090      C1091   1.398       .  A
C1090      H1095   1.078       .  S
C1091      C1092   1.415       .  A
C1091      C1098   1.446       .  S
C1092      C1093   1.405       .  A
C1093      C1094   1.400       .  A
C1093      H1096   1.076       .  S
C1094      C1097   1.443       .  S
C1097      N1099   1.157       .  T
C1098      N1100   1.157       .  T
C1101      C1102   1.416       .  A
C1101      C1106   1.430       .  A
C1102      C1103   1.398       .  A
C1102      H1107   1.078       .  S
C1103      C1104   1.414       .  A
C1103      C1110   1.446       .  S
C1104      C1105   1.406       .  A
C1105      C1106   1.399       .  A
C1105      H1108   1.077       .  S
C1106      C1109   1.447       .  S
C1109      N1111   1.158       .  T
C1110      N1112   1.157       .  T
C1113      C1114   1.409       .  A
C1113      C1118   1.415       .  A
C1114      C1115   1.408       .  A
C1114      H1119   1.084       .  S
C1115      C1116   1.412       .  A
C1115      C1122   1.443       .  S
C1116      C1117   1.401       .  A
C1117      C1118   1.397       .  A
C1117      H1120   1.086       .  S
C1118      C1121   1.441       .  S
C1121      N1123   1.156       .  T
C1122      N1124   1.157       .  T
C1125      C1126   1.419       .  A
C1125      C1130   1.427       .  A
C1126      C1127   1.405       .  A
C1126      H1131   1.078       .  S
C1127      C1128   1.415       .  A
C1127      C1134   1.445       .  S
C1128      C1129   1.408       .  A
C1129      C1130   1.401       .  A
C1129      H1132   1.079       .  S
C1130      C1133   1.445       .  S
C1133      N1135   1.157       .  T
C1134      N1136   1.157       .  T
C1137      C1138   1.399       .  A
C1137      C1142   1.411       .  A
C1138      C1139   1.394       .  A
C1138      H1143   1.086       .  S
C1139      C1140   1.410       .  A
C1139      C1146   1.440       .  S
C1140      C1141   1.407       .  A
C1141      C1142   1.407       .  A
C1141      H1144   1.084       .  S
C1142      C1145   1.443       .  S
C1145      N1147   1.157       .  T
C1146      N1148   1.156       .  T
C1149      C1150   1.403       .  A
C1149      C1154   1.420       .  A
C1150      C1151   1.398       .  A
C1150      H1155   1.078       .  S
C1151      C1152   1.432       .  A
C1151      C1158   1.446       .  S
C1152      C1153   1.414       .  A
C1153      C1154   1.404       .  A
C1153      H1156   1.080       .  S
C1154      C1157   1.445       .  S
C1157      N1159   1.157       .  T
C1158      N1160   1.158       .  T
C1161      C1162   1.409       .  A
C1161      C1166   1.413       .  A
C1162      C1163   1.407       .  A
C1162      H1167   1.084       .  S
C1163      C1164   1.413       .  A
C1163      C1170   1.443       .  S
C1164      C1165   1.402       .  A
C1165      C1166   1.396       .  A
C1165      H1168   1.085       .  S
C1166      C1169   1.440       .  S
C1169      N1171   1.156       .  T
C1170      N1172   1.157       .  T
C1173      C1174   1.404       .  A
C1173      C1178   1.415       .  A
C1174      C1175   1.398       .  A
C1174      H1179   1.076       .  S
C1175      C1176   1.427       .  A
C1175      C1182   1.443       .  S
C1176      C1177   1.419       .  A
C1177      C1178   1.403       .  A
C1177      H1180   1.079       .  S
C1178      C1181   1.446       .  S
C1181      N1183   1.157       .  T
C1182      N1184   1.157       .  T
C1185      C1186   1.399       .  A
C1185      C1190   1.413       .  A
C1186      C1187   1.395       .  A
C1186      H1191   1.086       .  S
C1187      C1188   1.410       .  A
C1187      C1194   1.440       .  S
C1188      C1189   1.407       .  A
C1189      C1190   1.409       .  A
C1189      H1192   1.084       .  S
C1190      C1193   1.443       .  S
C1193      N1195   1.157       .  T
C1194      N1196   1.156       .  T
C1197      C1198   1.420       .  A
C1197      C1202   1.437       .  A
C1198      C1199   1.405       .  A
C1198      H1203   1.084       .  S
C1199      C1200   1.417       .  A
C1199      C1206   1.442       .  S
C1200      C1201   1.405       .  A
C1201      C1202   1.405       .  A
C1201      H1204   1.085       .  S
C1202      C1205   1.444       .  S
C1205      N1207   1.158       .  T
C1206      N1208   1.158       .  T
C1209      C1210   1.399       .  A
C1209      C1214   1.413       .  A
C1210      C1211   1.393       .  A
C1210      H1215   1.085       .  S
C1211      C1212   1.412       .  A
C1211      C1218   1.446       .  S
C1212      C1213   1.402       .  A
C1213      C1214   1.402       .  A
C1213      H1216   1.085       .  S
C1214      C1217   1.444       .  S
C1217      N1219   1.157       .  T
C1218      N1220   1.157       .  T
C1221      C1222   1.411       .  A
C1221      C1226   1.414       .  A
C1222      C1223   1.409       .  A
C1222      H1227   1.084       .  S
C1223      C1224   1.413       .  A
C1223      C1230   1.442       .  S
C1224      C1225   1.400       .  A
C1225      C1226   1.394       .  A
C1225      H1228   1.082       .  S
C1226      C1229   1.440       .  S
C1229      N1231   1.156       .  T
C1230      N1232   1.157       .  T
C1233      C1234   1.402       .  A
C1233      C1238   1.413       .  A
C1234      C1235   1.398       .  A
C1234      H1239   1.085       .  S
C1235      C1236   1.414       .  A
C1235      C1242   1.442       .  S
C1236      C1237   1.407       .  A
C1237      C1238   1.407       .  A
C1237      H1240   1.085       .  S
C1238      C1241   1.442       .  S
C1241      N1243   1.157       .  T
C1242      N1244   1.156       .  T
C1245      C1246   1.401       .  A
C1245      C1250   1.411       .  A
C1246      C1247   1.395       .  A
C1246      H1251   1.086       .  S
C1247      C1248   1.411       .  A
C1247      C1254   1.439       .  S
C1248      C1249   1.407       .  A
C1249      C1250   1.404       .  A
C1249      H1252   1.085       .  S
C1250      C1253   1.443       .  S
C1253      N1255   1.157       .  T
C1254      N1256   1.156       .  T
C1257      C1258   1.411       .  A
C1257      C1262   1.410       .  A
C1258      C1259   1.410       .  A
C1258      H1263   1.084       .  S
C1259      C1260   1.410       .  A
C1259      C1266   1.442       .  S
C1260      C1261   1.395       .  A
C1261      C1262   1.388       .  A
C1261      H1264   1.081       .  S
C1262      C1265   1.440       .  S
C1265      N1267   1.156       .  T
C1266      N1268   1.157       .  T
C1269      C1270   1.403       .  A
C1269      C1274   1.410       .  A
C1270      C1271   1.396       .  A
C1270      H1275   1.086       .  S
C1271      C1272   1.411       .  A
C1271      C1278   1.442       .  S
C1272      C1273   1.410       .  A
C1273      C1274   1.408       .  A
C1273      H1276   1.084       .  S
C1274      C1277   1.443       .  S
C1277      N1279   1.157       .  T
C1278      N1280   1.156       .  T
C1281      C1282   1.402       .  A
C1281      C1286   1.419       .  A
C1282      C1283   1.399       .  A
C1282      H1287   1.085       .  S
C1283      C1284   1.417       .  A
C1283      C1290   1.445       .  S
C1284      C1285   1.406       .  A
C1285      C1286   1.410       .  A
C1285      H1288   1.084       .  S
C1286      C1289   1.443       .  S
C1289      N1291   1.157       .  T
C1290      N1292   1.157       .  T
C1293      C1294   1.405       .  A
C1293      C1298   1.407       .  A
C1294      C1295   1.404       .  A
C1294      H1299   1.085       .  S
C1295      C1296   1.411       .  A
C1295      C1302   1.443       .  S
C1296      C1297   1.402       .  A
C1297      C1298   1.396       .  A
C1297      H1300   1.085       .  S
C1298      C1301   1.441       .  S
C1301      N1303   1.156       .  T
C1302      N1304   1.157       .  T
C1305      C1306   1.408       .  A
C1305      C1310   1.411       .  A
C1306      C1307   1.409       .  A
C1306      H1311   1.084       .  S
C1307      C1308   1.410       .  A
C1307      C1314   1.443       .  S
C1308      C1309   1.399       .  A
C1309      C1310   1.393       .  A
C1309      H1312   1.086       .  S
C1310      C1313   1.441       .  S
C1313      N1315   1.156       .  T
C1314      N1316   1.157       .  T
C1317      C1318   1.400       .  A
C1317      C1322   1.414       .  A
C1318      C1319   1.393       .  A
C1318      H1323   1.086       .  S
C1319      C1320   1.415       .  A
C1319      C1326   1.444       .  S
C1320      C1321   1.406       .  A
C1321      C1322   1.408       .  A
C1321      H1324   1.084       .  S
C1322      C1325   1.442       .  S
C1325      N1327   1.157       .  T
C1326      N1328   1.157       .  T
C1329      C1330   1.399       .  A
C1329      C1334   1.416       .  A
C1330      C1331   1.391       .  A
C1330      H1335   1.085       .  S
C1331      C1332   1.414       .  A
C1331      C1338   1.446       .  S
C1332      C1333   1.402       .  A
C1333      C1334   1.403       .  A
C1333      H1336   1.085       .  S
C1334      C1337   1.444       .  S
C1337      N1339   1.157       .  T
C1338      N1340   1.157       .  T
C1341      C1342   1.409       .  A
C1341      C1346   1.412       .  A
C1342      C1343   1.397       .  A
C1342      H1347   1.077       .  S
C1343      C1344   1.425       .  A
C1343      C1350   1.446       .  S
C1344      C1345   1.419       .  A
C1345      C1346   1.398       .  A
C1345      H1348   1.079       .  S
C1346      C1349   1.446       .  S
C1349      N1351   1.157       .  T
C1350      N1352   1.158       .  T
C1353      C1354   1.410       .  A
C1353      C1358   1.411       .  A
C1354      C1355   1.409       .  A
C1354      H1359   1.084       .  S
C1355      C1356   1.411       .  A
C1355      C1362   1.442       .  S
C1356      C1357   1.401       .  A
C1357      C1358   1.394       .  A
C1357      H1360   1.086       .  S
C1358      C1361   1.439       .  S
C1361      N1363   1.156       .  T
C1362      N1364   1.157       .  T
C1365      C1366   1.400       .  A
C1365      C1370   1.415       .  A
C1366      C1367   1.396       .  A
C1366      H1371   1.086       .  S
C1367      C1368   1.413       .  A
C1367      C1374   1.439       .  S
C1368      C1369   1.410       .  A
C1369      C1370   1.411       .  A
C1369      H1372   1.084       .  S
C1370      C1373   1.443       .  S
C1373      N1375   1.157       .  T
C1374      N1376   1.155       .  T
C1377      C1378   1.405       .  A
C1377      C1382   1.412       .  A
C1378      C1379   1.408       .  A
C1378      H1383   1.085       .  S
C1379      C1380   1.417       .  A
C1379      C1386   1.444       .  S
C1380      C1381   1.402       .  A
C1381      C1382   1.399       .  A
C1381      H1384   1.085       .  S
C1382      C1385   1.444       .  S
C1385      N1387   1.157   1_655  T
C1386      N1388   1.157       .  T
C1389      C1390   1.406       .  A
C1389      C1394   1.421       .  A
C1390      C1391   1.406       .  A
C1390      H1395   1.085       .  S
C1391      C1392   1.435       .  A
C1391      C1398   1.443       .  S
C1392      C1393   1.416       .  A
C1393      C1394   1.402       .  A
C1393      H1396   1.085       .  S
C1394      C1397   1.442       .  S
C1397      N1399   1.158       .  T
C1398      N1400   1.158       .  T
C1401      C1402   1.398       .  A
C1401      C1406   1.414       .  A
C1402      C1403   1.393       .  A
C1402      H1407   1.085       .  S
C1403      C1404   1.414       .  A
C1403      C1410   1.445       .  S
C1404      C1405   1.402       .  A
C1405      C1406   1.403       .  A
C1405      H1408   1.085       .  S
C1406      C1409   1.444       .  S
C1409      N1411   1.157       .  T
C1410      N1412   1.157       .  T
C1413      C1414   1.407       .  A
C1413      C1418   1.409       .  A
C1414      C1415   1.408       .  A
C1414      H1419   1.084       .  S
C1415      C1416   1.412       .  A
C1415      C1422   1.443       .  S
C1416      C1417   1.402       .  A
C1417      C1418   1.398       .  A
C1417      H1420   1.085       .  S
C1418      C1421   1.443       .  S
C1421      N1423   1.157       .  T
C1422      N1424   1.157       .  T
C1425      C1426   1.400       .  A
C1425      C1430   1.413       .  A
C1426      C1427   1.392       .  A
C1426      H1431   1.085       .  S
C1427      C1428   1.412       .  A
C1427      C1434   1.444       .  S
C1428      C1429   1.406       .  A
C1429      C1430   1.406       .  A
C1429      H1432   1.084       .  S
C1430      C1433   1.443       .  S
C1433      N1435   1.157       .  T
C1434      N1436   1.157       .  T
C1437      C1438   1.407       .  A
C1437      C1442   1.417       .  A
C1438      C1439   1.398       .  A
C1438      H1443   1.086       .  S
C1439      C1440   1.428       .  A
C1439      C1446   1.443       .  S
C1440      C1441   1.415       .  A
C1441      C1442   1.396       .  A
C1441      H1444   1.085       .  S
C1442      C1445   1.442       .  S
C1445      N1447   1.158       .  T
C1446      N1448   1.158       .  T
C1449      C1450   1.403       .  A
C1449      C1454   1.415       .  A
C1450      C1451   1.399       .  A
C1450      H1455   1.085       .  S
C1451      C1452   1.412       .  A
C1451      C1458   1.445       .  S
C1452      C1453   1.404       .  A
C1453      C1454   1.407       .  A
C1453      H1456   1.085       .  S
C1454      C1457   1.443       .  S
C1457      N1459   1.157       .  T
C1458      N1460   1.157       .  T
C1461      C1462   1.404       .  A
C1461      C1466   1.411       .  A
C1462      C1463   1.406       .  A
C1462      H1467   1.084       .  S
C1463      C1464   1.410       .  A
C1463      C1470   1.443       .  S
C1464      C1465   1.398       .  A
C1465      C1466   1.399       .  A
C1465      H1468   1.084       .  S
C1466      C1469   1.441       .  S
C1469      N1471   1.156       .  T
C1470      N1472   1.157       .  T
C1473      C1474   1.400       .  A
C1473      C1478   1.415       .  A
C1474      C1475   1.388       .  A
C1474      H1479   1.085       .  S
C1475      C1476   1.412       .  A
C1475      C1482   1.445       .  S
C1476      C1477   1.404       .  A
C1477      C1478   1.405       .  A
C1477      H1480   1.085       .  S
C1478      C1481   1.442       .  S
C1481      N1483   1.157       .  T
C1482      N1484   1.157       .  T
C1485      C1486   1.417       .  A
C1485      C1490   1.430       .  A
C1486      C1487   1.402       .  A
C1486      H1491   1.081       .  S
C1487      C1488   1.417       .  A
C1487      C1494   1.445       .  S
C1488      C1489   1.406       .  A
C1489      C1490   1.404       .  A
C1489      H1492   1.087       .  S
C1490      C1493   1.443       .  S
C1493      N1495   1.157       .  T
C1494      N1496   1.157       .  T
C1497      C1498   1.405       .  A
C1497      C1502   1.410       .  A
C1498      C1499   1.408       .  A
C1498      H1503   1.084       .  S
C1499      C1500   1.410       .  A
C1499      C1506   1.442       .  S
C1500      C1501   1.400       .  A
C1501      C1502   1.396       .  A
C1501      H1504   1.084       .  S
C1502      C1505   1.442       .  S
C1505      N1507   1.157       .  T
C1506      N1508   1.157       .  T
C1509      C1510   1.403       .  A
C1509      C1514   1.418       .  A
C1510      C1511   1.390       .  A
C1510      H1515   1.082       .  S
C1511      C1512   1.415       .  A
C1511      C1518   1.444       .  S
C1512      C1513   1.407       .  A
C1513      C1514   1.409       .  A
C1513      H1516   1.084       .  S
C1514      C1517   1.443       .  S
C1517      N1519   1.157       .  T
C1518      N1520   1.157       .  T
C1521      C1522   1.406       .  A
C1521      C1526   1.408       .  A
C1522      C1523   1.405       .  A
C1522      H1527   1.085       .  S
C1523      C1524   1.408       .  A
C1523      C1530   1.443       .  S
C1524      C1525   1.404       .  A
C1525      C1526   1.403       .  A
C1525      H1528   1.084       .  S
C1526      C1529   1.443       .  S
C1529      N1531   1.157       .  T
C1530      N1532   1.157       .  T
C1533      C1534   1.408       .  A
C1533      C1538   1.416       .  A
C1534      C1535   1.407       .  A
C1534      H1539   1.077       .  S
C1535      C1536   1.431       .  A
C1535      C1542   1.446       .  S
C1536      C1537   1.418       .  A
C1537      C1538   1.401       .  A
C1537      H1540   1.078       .  S
C1538      C1541   1.447       .  S
C1541      N1543   1.157       .  T
C1542      N1544   1.157       .  T
C1545      C1546   1.401       .  A
C1545      C1550   1.409       .  A
C1546      C1547   1.399       .  A
C1546      H1551   1.084       .  S
C1547      C1548   1.408       .  A
C1547      C1554   1.444       .  S
C1548      C1549   1.401       .  A
C1549      C1550   1.400       .  A
C1549      H1552   1.085       .  S
C1550      C1553   1.444       .  S
C1553      N1555   1.157       .  T
C1554      N1556   1.157       .  T
C1557      C1558   1.402       .  A
C1557      C1562   1.416       .  A
C1558      C1559   1.395       .  A
C1558      H1563   1.084       .  S
C1559      C1560   1.412       .  A
C1559      C1566   1.445       .  S
C1560      C1561   1.402       .  A
C1561      C1562   1.402       .  A
C1561      H1564   1.085       .  S
C1562      C1565   1.444       .  S
C1565      N1567   1.157       .  T
C1566      N1568   1.157       .  T
C1569      C1570   1.404       .  A
C1569      C1574   1.416       .  A
C1570      C1571   1.392       .  A
C1570      H1575   1.083       .  S
C1571      C1572   1.416       .  A
C1571      C1578   1.446       .  S
C1572      C1573   1.407       .  A
C1573      C1574   1.406       .  A
C1573      H1576   1.085       .  S
C1574      C1577   1.442       .  S
C1577      N1579   1.157       .  T
C1578      N1580   1.158       .  T
C1581      C1582   1.408       .  A
C1581      C1586   1.413       .  A
C1582      C1583   1.403       .  A
C1582      H1587   1.077       .  S
C1583      C1584   1.427       .  A
C1583      C1590   1.446       .  S
C1584      C1585   1.414       .  A
C1585      C1586   1.391       .  A
C1585      H1588   1.078       .  S
C1586      C1589   1.447       .  S
C1589      N1591   1.157       .  T
C1590      N1592   1.157       .  T
C1593      C1594   1.408       .  A
C1593      C1598   1.413       .  A
C1594      C1595   1.409       .  A
C1594      H1599   1.084       .  S
C1595      C1596   1.412       .  A
C1595      C1602   1.443       .  S
C1596      C1597   1.399       .  A
C1597      C1598   1.396       .  A
C1597      H1600   1.086       .  S
C1598      C1601   1.440       .  S
C1601      N1603   1.156       .  T
C1602      N1604   1.157       .  T
C1605      C1606   1.410       .  A
C1605      C1610   1.412       .  A
C1606      C1607   1.407       .  A
C1606      H1611   1.084       .  S
C1607      C1608   1.409       .  A
C1607      C1614   1.441       .  S
C1608      C1609   1.398       .  A
C1609      C1610   1.393       .  A
C1609      H1612   1.081       .  S
C1610      C1613   1.442       .  S
C1613      N1615   1.156       .  T
C1614      N1616   1.156       .  T
C1617      C1618   1.398       .  A
C1617      C1622   1.412       .  A
C1618      C1619   1.393       .  A
C1618      H1623   1.085       .  S
C1619      C1620   1.411       .  A
C1619      C1626   1.441       .  S
C1620      C1621   1.405       .  A
C1621      C1622   1.408       .  A
C1621      H1624   1.084       .  S
C1622      C1625   1.443       .  S
C1625      N1627   1.157       .  T
C1626      N1628   1.156       .  T
C1629      C1630   1.418       .  A
C1629      C1634   1.430       .  A
C1630      C1631   1.402       .  A
C1630      H1635   1.078       .  S
C1631      C1632   1.417       .  A
C1631      C1638   1.446       .  S
C1632      C1633   1.406       .  A
C1633      C1634   1.405       .  A
C1633      H1636   1.077       .  S
C1634      C1637   1.443       .  S
C1637      N1639   1.157       .  T
C1638      N1640   1.157       .  T
C1641      C1642   1.401       .  A
C1641      C1646   1.414       .  A
C1642      C1643   1.396       .  A
C1642      H1647   1.085       .  S
C1643      C1644   1.413       .  A
C1643      C1650   1.439       .  S
C1644      C1645   1.411       .  A
C1645      C1646   1.415       .  A
C1645      H1648   1.084       .  S
C1646      C1649   1.442       .  S
C1649      N1651   1.157       .  T
C1650      N1652   1.155       .  T
C1653      C1654   1.410       .  A
C1653      C1658   1.413       .  A
C1654      C1655   1.410       .  A
C1654      H1659   1.084       .  S
C1655      C1656   1.411       .  A
C1655      C1662   1.443       .  S
C1656      C1657   1.402       .  A
C1657      C1658   1.397       .  A
C1657      H1660   1.086       .  S
C1658      C1661   1.444       .  S
C1661      N1663   1.157       .  T
C1662      N1664   1.157       .  T
C1665      C1666   1.410       .  A
C1665      C1670   1.411       .  A
C1666      C1667   1.410       .  A
C1666      H1671   1.084       .  S
C1667      C1668   1.411       .  A
C1667      C1674   1.441       .  S
C1668      C1669   1.401       .  A
C1669      C1670   1.393       .  A
C1669      H1672   1.086       .  S
C1670      C1673   1.441       .  S
C1673      N1675   1.156       .  T
C1674      N1676   1.157       .  T
C1677      C1678   1.411       .  A
C1677      C1682   1.417       .  A
C1678      C1679   1.406       .  A
C1678      H1683   1.076       .  S
C1679      C1680   1.428       .  A
C1679      C1686   1.445       .  S
C1680      C1681   1.420       .  A
C1681      C1682   1.406       .  A
C1681      H1684   1.079       .  S
C1682      C1685   1.446       .  S
C1685      N1687   1.157       .  T
C1686      N1688   1.157       .  T
C1689      C1690   1.403       .  A
C1689      C1694   1.413       .  A
C1690      C1691   1.404       .  A
C1690      H1695   1.085       .  S
C1691      C1692   1.414       .  A
C1691      C1698   1.443       .  S
C1692      C1693   1.401       .  A
C1693      C1694   1.393       .  A
C1693      H1696   1.085       .  S
C1694      C1697   1.445       .  S
C1697      N1699   1.157       .  T
C1698      N1700   1.157       .  T
C1701      C1702   1.399       .  A
C1701      C1706   1.409       .  A
C1702      C1703   1.400       .  A
C1702      H1707   1.085       .  S
C1703      C1704   1.410       .  A
C1703      C1710   1.444       .  S
C1704      C1705   1.401       .  A
C1705      C1706   1.400       .  A
C1705      H1708   1.085       .  S
C1706      C1709   1.444       .  S
C1709      N1711   1.157       .  T
C1710      N1712   1.157       .  T
C1713      C1714   1.402       .  A
C1713      C1718   1.419       .  A
C1714      C1715   1.392       .  A
C1714      H1719   1.082       .  S
C1715      C1716   1.415       .  A
C1715      C1722   1.446       .  S
C1716      C1717   1.405       .  A
C1717      C1718   1.410       .  A
C1717      H1720   1.084       .  S
C1718      C1721   1.443       .  S
C1721      N1723   1.157       .  T
C1722      N1724   1.157       .  T
C1725      C1726   1.404       .  A
C1725      C1730   1.417       .  A
C1726      C1727   1.398       .  A
C1726      H1731   1.086       .  S
C1727      C1728   1.431       .  A
C1727      C1734   1.444       .  S
C1728      C1729   1.417       .  A
C1729      C1730   1.399       .  A
C1729      H1732   1.084       .  S
C1730      C1733   1.442       .  S
C1733      N1735   1.158       .  T
C1734      N1736   1.158       .  T
C1737      C1738   1.402       .  A
C1737      C1742   1.414       .  A
C1738      C1739   1.397       .  A
C1738      H1743   1.085       .  S
C1739      C1740   1.417       .  A
C1739      C1746   1.445       .  S
C1740      C1741   1.408       .  A
C1741      C1742   1.411       .  A
C1741      H1744   1.084       .  S
C1742      C1745   1.443       .  S
C1745      N1747   1.157       .  T
C1746      N1748   1.157       .  T
C1749      C1750   1.400       .  A
C1749      C1754   1.409       .  A
C1750      C1751   1.393       .  A
C1750      H1755   1.086       .  S
C1751      C1752   1.409       .  A
C1751      C1758   1.442       .  S
C1752      C1753   1.408       .  A
C1753      C1754   1.405       .  A
C1753      H1756   1.085       .  S
C1754      C1757   1.443       .  S
C1757      N1759   1.157       .  T
C1758      N1760   1.156       .  T
C1761      C1762   1.408       .  A
C1761      C1766   1.415       .  A
C1762      C1763   1.409       .  A
C1762      H1767   1.084       .  S
C1763      C1764   1.414       .  A
C1763      C1770   1.442       .  S
C1764      C1765   1.401       .  A
C1765      C1766   1.395       .  A
C1765      H1768   1.086       .  S
C1766      C1769   1.439       .  S
C1769      N1771   1.155       .  T
C1770      N1772   1.157       .  T
C1773      C1774   1.409       .  A
C1773      C1778   1.415       .  A
C1774      C1775   1.404       .  A
C1774      H1779   1.076       .  S
C1775      C1776   1.428       .  A
C1775      C1782   1.445       .  S
C1776      C1777   1.420       .  A
C1777      C1778   1.406       .  A
C1777      H1780   1.079       .  S
C1778      C1781   1.445       .  S
C1781      N1783   1.157       .  T
C1782      N1784   1.157       .  T
C1785      C1786   1.407       .  A
C1785      C1790   1.410       .  A
C1786      C1787   1.404       .  A
C1786      H1791   1.085       .  S
C1787      C1788   1.409       .  A
C1787      C1794   1.443       .  S
C1788      C1789   1.401       .  A
C1789      C1790   1.395       .  A
C1789      H1792   1.086       .  S
C1790      C1793   1.443       .  S
C1793      N1795   1.157       .  T
C1794      N1796   1.157       .  T
C1797      C1798   1.403       .  A
C1797      C1802   1.411       .  A
C1798      C1799   1.398       .  A
C1798      H1803   1.085       .  S
C1799      C1800   1.412       .  A
C1799      C1806   1.445       .  S
C1800      C1801   1.403       .  A
C1801      C1802   1.403       .  A
C1801      H1804   1.085       .  S
C1802      C1805   1.441       .  S
C1805      N1807   1.156       .  T
C1806      N1808   1.157       .  T
C1809      C1810   1.406       .  A
C1809      C1814   1.410       .  A
C1810      C1811   1.407       .  A
C1810      H1815   1.084       .  S
C1811      C1812   1.412       .  A
C1811      C1818   1.443       .  S
C1812      C1813   1.402       .  A
C1813      C1814   1.393       .  A
C1813      H1816   1.085       .  S
C1814      C1817   1.446       .  S
C1817      N1819   1.157       .  T
C1818      N1820   1.157       .  T
C1821      C1822   1.407       .  A
C1821      C1826   1.415       .  A
C1822      C1823   1.400       .  A
C1822      H1827   1.078       .  S
C1823      C1824   1.427       .  A
C1823      C1830   1.444       .  S
C1824      C1825   1.418       .  A
C1825      C1826   1.400       .  A
C1825      H1828   1.080       .  S
C1826      C1829   1.443       .  S
C1829      N1831   1.156       .  T
C1830      N1832   1.157       .  T
C1833      C1834   1.406       .  A
C1833      C1838   1.413       .  A
C1834      C1835   1.411       .  A
C1834      H1839   1.085       .  S
C1835      C1836   1.414       .  A
C1835      C1842   1.443       .  S
C1836      C1837   1.402       .  A
C1837      C1838   1.405       .  A
C1837      H1840   1.085       .  S
C1838      C1841   1.441       .  S
C1841      N1843   1.156       .  T
C1842      N1844   1.157       .  T
C1845      C1846   1.402       .  A
C1845      C1850   1.416       .  A
C1846      C1847   1.397       .  A
C1846      H1851   1.085       .  S
C1847      C1848   1.415       .  A
C1847      C1854   1.445       .  S
C1848      C1849   1.405       .  A
C1849      C1850   1.405       .  A
C1849      H1852   1.085       .  S
C1850      C1853   1.443       .  S
C1853      N1855   1.157       .  T
C1854      N1856   1.157   1_545  T
C1857      C1858   1.409       .  A
C1857      C1862   1.410       .  A
C1858      C1859   1.406       .  A
C1858      H1863   1.084       .  S
C1859      C1860   1.408       .  A
C1859      C1866   1.442       .  S
C1860      C1861   1.400       .  A
C1861      C1862   1.389       .  A
C1861      H1864   1.086       .  S
C1862      C1865   1.441       .  S
C1865      N1867   1.156       .  T
C1866      N1868   1.157       .  T
C1869      C1870   1.420       .  A
C1869      C1874   1.429       .  A
C1870      C1871   1.408       .  A
C1870      H1875   1.078       .  S
C1871      C1872   1.417       .  A
C1871      C1878   1.445       .  S
C1872      C1873   1.410       .  A
C1873      C1874   1.404       .  A
C1873      H1876   1.077       .  S
C1874      C1877   1.446       .  S
C1877      N1879   1.158       .  T
C1878      N1880   1.157       .  T
C1881      C1882   1.407       .  A
C1881      C1886   1.412       .  A
C1882      C1883   1.409       .  A
C1882      H1887   1.084       .  S
C1883      C1884   1.413       .  A
C1883      C1890   1.443       .  S
C1884      C1885   1.399       .  A
C1885      C1886   1.396       .  A
C1885      H1888   1.086       .  S
C1886      C1889   1.440       .  S
C1889      N1891   1.156       .  T
C1890      N1892   1.157       .  T
C1893      C1894   1.408       .  A
C1893      C1898   1.412       .  A
C1894      C1895   1.405       .  A
C1894      H1899   1.084       .  S
C1895      C1896   1.411       .  A
C1895      C1902   1.443       .  S
C1896      C1897   1.401       .  A
C1897      C1898   1.396       .  A
C1897      H1900   1.086       .  S
C1898      C1901   1.440       .  S
C1901      N1903   1.156       .  T
C1902      N1904   1.157       .  T
C1905      C1906   1.398       .  A
C1905      C1910   1.412       .  A
C1906      C1907   1.393       .  A
C1906      H1911   1.086       .  S
C1907      C1908   1.412       .  A
C1907      C1914   1.440       .  S
C1908      C1909   1.406       .  A
C1909      C1910   1.407       .  A
C1909      H1912   1.084       .  S
C1910      C1913   1.443       .  S
C1913      N1915   1.157       .  T
C1914      N1916   1.156       .  T
C1917      C1918   1.418       .  A
C1917      C1922   1.434       .  A
C1918      C1919   1.402       .  A
C1918      H1923   1.085       .  S
C1919      C1920   1.416       .  A
C1919      C1926   1.441       .  S
C1920      C1921   1.406       .  A
C1921      C1922   1.403       .  A
C1921      H1924   1.086       .  S
C1922      C1925   1.443       .  S
C1925      N1927   1.158       .  T
C1926      N1928   1.158       .  T
C1929      C1930   1.407       .  A
C1929      C1934   1.413       .  A
C1930      C1931   1.408       .  A
C1930      H1935   1.084       .  S
C1931      C1932   1.413       .  A
C1931      C1938   1.442       .  S
C1932      C1933   1.403       .  A
C1933      C1934   1.396       .  A
C1933      H1936   1.085       .  S
C1934      C1937   1.446       .  S
C1937      N1939   1.157       .  T
C1938      N1940   1.157       .  T
C1941      C1942   1.401       .  A
C1941      C1946   1.414       .  A
C1942      C1943   1.396       .  A
C1942      H1947   1.085       .  S
C1943      C1944   1.413       .  A
C1943      C1950   1.444       .  S
C1944      C1945   1.403       .  A
C1945      C1946   1.400       .  A
C1945      H1948   1.085       .  S
C1946      C1949   1.444       .  S
C1949      N1951   1.157       .  T
C1950      N1952   1.157       .  T
C1953      C1954   1.406       .  A
C1953      C1958   1.410       .  A
C1954      C1955   1.409       .  A
C1954      H1959   1.084       .  S
C1955      C1956   1.413       .  A
C1955      C1962   1.443       .  S
C1956      C1957   1.403       .  A
C1957      C1958   1.402       .  A
C1957      H1960   1.085       .  S
C1958      C1961   1.443       .  S
C1961      N1963   1.157       .  T
C1962      N1964   1.157       .  T
C1965      C1966   1.412       .  A
C1965      C1970   1.413       .  A
C1966      C1967   1.403       .  A
C1966      H1971   1.077       .  S
C1967      C1968   1.425       .  A
C1967      C1974   1.446       .  S
C1968      C1969   1.419       .  A
C1969      C1970   1.402       .  A
C1969      H1972   1.079       .  S
C1970      C1973   1.445       .  S
C1973      N1975   1.157       .  T
C1974      N1976   1.157       .  T
C1977      C1978   1.409       .  A
C1977      C1982   1.417       .  A
C1978      C1979   1.409       .  A
C1978      H1983   1.084       .  S
C1979      C1980   1.412       .  A
C1979      C1986   1.443       .  S
C1980      C1981   1.398       .  A
C1981      C1982   1.397       .  A
C1981      H1984   1.086       .  S
C1982      C1985   1.441       .  S
C1985      N1987   1.156       .  T
C1986      N1988   1.157       .  T
C1989      C1990   1.395       .  A
C1989      C1994   1.410       .  A
C1990      C1991   1.391       .  A
C1990      H1995   1.081       .  S
C1991      C1992   1.411       .  A
C1991      C1998   1.445       .  S
C1992      C1993   1.404       .  A
C1993      C1994   1.406       .  A
C1993      H1996   1.085       .  S
C1994      C1997   1.442       .  S
C1997      N1999   1.157       .  T
C1998      N2000   1.157       .  T
C2001      C2002   1.405       .  A
C2001      C2006   1.419       .  A
C2002      C2003   1.392       .  A
C2002      H2007   1.075       .  S
C2003      C2004   1.409       .  A
C2003      C2010   1.447       .  S
C2004      C2005   1.405       .  A
C2005      C2006   1.407       .  A
C2005      H2008   1.085       .  S
C2006      C2009   1.443       .  S
C2009      N2011   1.157       .  T
C2010      N2012   1.157       .  T
C2013      C2014   1.416       .  A
C2013      C2018   1.427       .  A
C2014      C2015   1.397       .  A
C2014      H2019   1.076       .  S
C2015      C2016   1.415       .  A
C2015      C2022   1.446       .  S
C2016      C2017   1.411       .  A
C2017      C2018   1.407       .  A
C2017      H2020   1.077       .  S
C2018      C2021   1.446       .  S
C2021      N2023   1.157       .  T
C2022      N2024   1.157       .  T
C2025      C2026   1.403       .  A
C2025      C2030   1.412       .  A
C2026      C2027   1.407       .  A
C2026      H2031   1.084       .  S
C2027      C2028   1.413       .  A
C2027      C2034   1.443       .  S
C2028      C2029   1.401       .  A
C2029      C2030   1.402       .  A
C2029      H2032   1.085       .  S
C2030      C2033   1.443       .  S
C2033      N2035   1.157       .  T
C2034      N2036   1.157       .  T
C2037      C2038   1.409       .  A
C2037      C2042   1.415       .  A
C2038      C2039   1.413       .  A
C2038      H2043   1.084       .  S
C2039      C2040   1.418       .  A
C2039      C2046   1.441       .  S
C2040      C2041   1.406       .  A
C2041      C2042   1.389       .  A
C2041      H2044   1.080       .  S
C2042      C2045   1.446       .  S
C2045      N2047   1.158       .  T
C2046      N2048   1.157       .  T
C2049      C2050   1.405       .  A
C2049      C2054   1.409       .  A
C2050      C2051   1.404       .  A
C2050      H2055   1.085       .  S
C2051      C2052   1.407       .  A
C2051      C2058   1.443       .  S
C2052      C2053   1.401       .  A
C2053      C2054   1.395       .  A
C2053      H2056   1.085       .  S
C2054      C2057   1.445       .  S
C2057      N2059   1.157       .  T
C2058      N2060   1.157       .  T
C2061      C2062   1.407       .  A
C2061      C2066   1.417       .  A
C2062      C2063   1.398       .  A
C2062      H2067   1.086       .  S
C2063      C2064   1.430       .  A
C2063      C2070   1.443       .  S
C2064      C2065   1.422       .  A
C2065      C2066   1.409       .  A
C2065      H2068   1.085       .  S
C2066      C2069   1.439       .  S
C2069      N2071   1.157       .  T
C2070      N2072   1.158       .  T
C2073      C2074   1.397       .  A
C2073      C2078   1.408       .  A
C2074      C2075   1.392       .  A
C2074      H2079   1.085       .  S
C2075      C2076   1.407       .  A
C2075      C2082   1.441       .  S
C2076      C2077   1.403       .  A
C2077      C2078   1.403       .  A
C2077      H2080   1.084       .  S
C2078      C2081   1.443       .  S
C2081      N2083   1.157       .  T
C2082      N2084   1.156       .  T
C2085      C2086   1.411       .  A
C2085      C2090   1.414       .  A
C2086      C2087   1.408       .  A
C2086      H2091   1.084       .  S
C2087      C2088   1.407       .  A
C2087      C2094   1.442       .  S
C2088      C2089   1.397       .  A
C2089      C2090   1.394       .  A
C2089      H2092   1.086       .  S
C2090      C2093   1.441       .  S
C2093      N2095   1.156       .  T
C2094      N2096   1.157       .  T
C2097      C2098   1.403       .  A
C2097      C2102   1.413       .  A
C2098      C2099   1.402       .  A
C2098      H2103   1.085       .  S
C2099      C2100   1.413       .  A
C2099      C2106   1.444       .  S
C2100      C2101   1.403       .  A
C2101      C2102   1.400       .  A
C2101      H2104   1.085       .  S
C2102      C2105   1.445       .  S
C2105      N2107   1.157       .  T
C2106      N2108   1.157       .  T
C2109      C2110   1.407       .  A
C2109      C2114   1.415       .  A
C2110      C2111   1.400       .  A
C2110      H2115   1.078       .  S
C2111      C2112   1.428       .  A
C2111      C2118   1.446       .  S
C2112      C2113   1.419       .  A
C2113      C2114   1.398       .  A
C2113      H2116   1.078       .  S
C2114      C2117   1.447       .  S
C2117      N2119   1.157       .  T
C2118      N2120   1.157       .  T
C2121      C2122   1.403       .  A
C2121      C2126   1.413       .  A
C2122      C2123   1.402       .  A
C2122      H2127   1.085       .  S
C2123      C2124   1.411       .  A
C2123      C2130   1.444       .  S
C2124      C2125   1.399       .  A
C2125      C2126   1.398       .  A
C2125      H2128   1.085       .  S
C2126      C2129   1.441       .  S
C2129      N2131   1.156       .  T
C2130      N2132   1.157       .  T
C2133      C2134   1.404       .  A
C2133      C2138   1.412       .  A
C2134      C2135   1.396       .  A
C2134      H2139   1.085       .  S
C2135      C2136   1.412       .  A
C2135      C2142   1.446       .  S
C2136      C2137   1.407       .  A
C2137      C2138   1.409       .  A
C2137      H2140   1.084       .  S
C2138      C2141   1.442       .  S
C2141      N2143   1.157       .  T
C2142      N2144   1.157       .  T
C2145      C2146   1.401       .  A
C2145      C2150   1.412       .  A
C2146      C2147   1.396       .  A
C2146      H2151   1.085       .  S
C2147      C2148   1.411       .  A
C2147      C2154   1.445       .  S
C2148      C2149   1.402       .  A
C2149      C2150   1.399       .  A
C2149      H2152   1.085       .  S
C2150      C2153   1.444       .  S
C2153      N2155   1.157       .  T
C2154      N2156   1.157       .  T
C2157      C2158   1.418       .  A
C2157      C2162   1.435       .  A
C2158      C2159   1.401       .  A
C2158      H2163   1.084       .  S
C2159      C2160   1.420       .  A
C2159      C2166   1.442       .  S
C2160      C2161   1.402       .  A
C2161      C2162   1.402       .  A
C2161      H2164   1.086       .  S
C2162      C2165   1.442       .  S
C2165      N2167   1.158       .  T
C2166      N2168   1.158       .  T
C2169      C2170   1.401       .  A
C2169      C2174   1.411       .  A
C2170      C2171   1.393       .  A
C2170      H2175   1.085       .  S
C2171      C2172   1.411       .  A
C2171      C2178   1.445       .  S
C2172      C2173   1.405       .  A
C2173      C2174   1.404       .  A
C2173      H2176   1.085       .  S
C2174      C2177   1.443       .  S
C2177      N2179   1.157       .  T
C2178      N2180   1.157   1_554  T
C2181      C2182   1.401       .  A
C2181      C2186   1.415       .  A
C2182      C2183   1.394       .  A
C2182      H2187   1.085       .  S
C2183      C2184   1.410       .  A
C2183      C2190   1.446       .  S
C2184      C2185   1.402       .  A
C2185      C2186   1.405       .  A
C2185      H2188   1.085       .  S
C2186      C2189   1.443       .  S
C2189      N2191   1.157       .  T
C2190      N2192   1.157       .  T
C2193      C2194   1.401       .  A
C2193      C2198   1.409       .  A
C2194      C2195   1.395       .  A
C2194      H2199   1.085       .  S
C2195      C2196   1.413       .  A
C2195      C2202   1.443       .  S
C2196      C2197   1.407       .  A
C2197      C2198   1.402       .  A
C2197      H2200   1.084       .  S
C2198      C2201   1.444       .  S
C2201      N2203   1.157       .  T
C2202      N2204   1.157       .  T
C2205      C2206   1.407       .  A
C2205      C2210   1.419       .  A
C2206      C2207   1.395       .  A
C2206      H2211   1.086       .  S
C2207      C2208   1.430       .  A
C2207      C2214   1.445       .  S
C2208      C2209   1.416       .  A
C2209      C2210   1.401       .  A
C2209      H2212   1.085       .  S
C2210      C2213   1.439       .  S
C2213      N2215   1.158       .  T
C2214      N2216   1.158       .  T
C2217      C2218   1.405       .  A
C2217      C2222   1.408       .  A
C2218      C2219   1.401       .  A
C2218      H2223   1.085       .  S
C2219      C2220   1.409       .  A
C2219      C2226   1.443       .  S
C2220      C2221   1.402       .  A
C2221      C2222   1.393       .  A
C2221      H2224   1.086       .  S
C2222      C2225   1.443       .  S
C2225      N2227   1.157       .  T
C2226      N2228   1.157       .  T
C2229      C2230   1.407       .  A
C2229      C2234   1.417       .  A
C2230      C2231   1.404       .  A
C2230      H2235   1.084       .  S
C2231      C2232   1.411       .  A
C2231      C2238   1.443       .  S
C2232      C2233   1.399       .  A
C2233      C2234   1.391       .  A
C2233      H2236   1.085       .  S
C2234      C2237   1.446       .  S
C2237      N2239   1.158       .  T
C2238      N2240   1.157       .  T
C2241      C2242   1.402       .  A
C2241      C2246   1.414       .  A
C2242      C2243   1.402       .  A
C2242      H2247   1.085       .  S
C2243      C2244   1.415       .  A
C2243      C2250   1.445       .  S
C2244      C2245   1.406       .  A
C2245      C2246   1.410       .  A
C2245      H2248   1.084       .  S
C2246      C2249   1.443       .  S
C2249      N2251   1.157       .  T
C2250      N2252   1.157       .  T
C2253      C2254   1.405       .  A
C2253      C2258   1.419       .  A
C2254      C2255   1.402       .  A
C2254      H2259   1.085       .  S
C2255      C2256   1.432       .  A
C2255      C2262   1.443       .  S
C2256      C2257   1.413       .  A
C2257      C2258   1.397       .  A
C2257      H2260   1.085       .  S
C2258      C2261   1.443       .  S
C2261      N2263   1.158       .  T
C2262      N2264   1.158       .  T
