geometry optimzed in LAMMPS
_audit_creation_date              2020-11-30 
_audit_creation_method            'lammps2cif' 
_symmetry_space_group_name_H-M    'P1' 
_symmetry_Int_Tables_number       1 
_symmetry_cell_setting            triclinic 
loop_ 
_symmetry_equiv_pos_as_xyz 
  x,y,z 
_cell_length_a                    42.38177393 
_cell_length_b                    42.1713724909302 
_cell_length_c                    29.270706013344576 
_cell_angle_alpha                 88.96657985639563 
_cell_angle_beta                  90.33163719064221 
_cell_angle_gamma                 90.20562250016381 
loop_ 
_atom_site_label 
_atom_site_type_symbol 
_atom_site_fract_x 
_atom_site_fract_y 
_atom_site_fract_z 
_atom_site_charge 
C1          C  0.03099973  0.17789009  0.50178085     0.02900
C2          C  0.02932693  0.15998466  0.54241573    -0.13200
C3          C  0.53327530  0.12711283  0.54158046     0.00400
C4          C  0.53857509  0.11225846  0.49992440    -0.11700
C5          C  0.53957259  0.13004088  0.45912343     0.02900
C6          C  0.03619928  0.16297330  0.46016034    -0.11200
H7          H  0.02494136  0.17159097  0.57448992     0.08500
H8          H  0.54107181  0.08666061  0.49912154     0.06000
H9          H  0.03702975  0.17686965  0.42868140     0.05900
C10         C  0.01819879  0.31310082  0.50115964     0.02900
C11         C  0.01987303  0.32938123  0.45901838    -0.13200
C12         C  0.02031397  0.36255814  0.45773433     0.00400
C13         C  0.01872161  0.37927830  0.49847138    -0.11700
C14         C  0.01738407  0.36310062  0.54054557     0.02900
C15         C  0.01688694  0.32994745  0.54189480    -0.11200
H16         H  0.02161213  0.31632413  0.42759472     0.08500
H17         H  0.01969499  0.40502013  0.49753655     0.06600
H18         H  0.01685094  0.31733164  0.57447798     0.05900
C19         C  0.21813389  0.98431266  0.00051036     0.02900
C20         C  0.20087842  0.98423408  0.04118457    -0.13200
C21         C  0.16792279  0.98528883  0.03955752     0.00400
C22         C  0.15227090  0.98632518  0.99741384    -0.11700
C23         C  0.16947757  0.98644152  0.95681113     0.02900
C24         C  0.20242133  0.98529168  0.95827390    -0.11200
H25         H  0.21306180  0.98406296  0.07390714     0.08500
H26         H  0.12674755  0.98751223  0.99621406     0.06000
H27         H  0.21578795  0.98568323  0.92673995     0.05900
C28         C  0.35764279  0.49103726  0.00641199     0.02900
C29         C  0.37330493  0.49758527  0.04739821    -0.13200
C30         C  0.40625972  0.49883414  0.04850835     0.00400
C31         C  0.42335292  0.49463675  0.00840104    -0.11700
C32         C  0.40784483  0.48793262  0.96742289     0.02900
C33         C  0.37486689  0.48578450  0.96657079    -0.11200
H34         H  0.35995823  0.50107121  0.07839088     0.08500
H35         H  0.44890797  0.49610551  0.00926194     0.06000
H36         H  0.36264108  0.48042611  0.93498345     0.05900
In37       In  0.04282284  0.49898107  0.25134942     1.36900
C38         C  0.49349336  0.50229014  0.19666242     0.77400
O39         O  0.01783011  0.02818711  0.30592238    -0.61100
O40         O  0.06270465  0.04089140  0.27943110    -0.52000
C41         C  0.03659738  0.44998109  0.30801061     0.70000
O42         O  0.01795249  0.45507245  0.27513321    -0.46800
C43         C  0.08967309  0.49530802  0.19227936     0.74800
O44         O  0.51094567  0.47819347  0.19952193    -0.58700
O45         O  0.08322138  0.97638170  0.22741701    -0.48800
O46         O  0.99574896  0.02288694  0.22410765    -0.55100
C47         C  0.04103935  0.04685975  0.30729307     0.84900
O48         O  0.05936992  0.46919747  0.31058062    -0.57000
O49         O  0.06840026  0.51597643  0.18941162    -0.60300
In50       In  0.03682236  0.49042838  0.75325350     1.36900
C51         C  0.49267376  0.48434481  0.81604106     0.77400
O52         O  0.00896346  0.46729783  0.69790753    -0.61100
O53         O  0.04997134  0.44402028  0.72378585    -0.52000
C54         C  0.03179319  0.03978425  0.69406073     0.70000
O55         O  0.00823341  0.03187807  0.71756102    -0.46800
C56         C  0.08405456  0.99250463  0.80526607     0.74800
O57         O  0.50424939  0.51065026  0.80385775    -0.58700
O58         O  0.08519627  0.47306539  0.77213653    -0.48800
O59         O  0.00396575  0.46071049  0.79610481    -0.55100
C60         C  0.02773439  0.44433373  0.69496954     0.84900
O61         O  0.05631275  0.02385616  0.70235330    -0.57000
O62         O  0.06199596  0.01221004  0.80887254    -0.60300
C63         C  0.42371485  0.50634638  0.88940638    -0.02000
C64         C  0.42657101  0.48405423  0.92561776     0.07600
C65         C  0.44940972  0.45983288  0.92368266    -0.02200
C66         C  0.47065437  0.45914996  0.88704453    -0.02200
C67         C  0.46820800  0.48195387  0.85134631     0.07800
C68         C  0.44376908  0.50458031  0.85161549    -0.02400
Br69       Br  0.43720065  0.53298492  0.79984330    -0.00900
Br70       Br  0.39466797  0.54139066  0.89335503    -0.01000
Br71       Br  0.00467746  0.42866685  0.88830609    -0.00900
Br72       Br  0.45226006  0.42805890  0.97196924    -0.00900
C73         C  0.42471523  0.47735882  0.12367658    -0.02000
C74         C  0.42364297  0.50265879  0.09162720     0.07600
C75         C  0.44265838  0.52971225  0.09767688    -0.02200
C76         C  0.46488403  0.53027783  0.13336500    -0.02200
C77         C  0.46715509  0.50419738  0.16403031     0.07800
C78         C  0.44603600  0.47845829  0.16043875    -0.02400
Br79       Br  0.44605099  0.44479235  0.20607008    -0.00900
Br80       Br  0.39890552  0.44003718  0.11538036    -0.01000
Br81       Br  0.98908513  0.06391049  0.13856234    -0.00900
Br82       Br  0.43873047  0.56556763  0.05608328    -0.00900
C83         C  0.14645031  0.45881267  0.89236274    -0.02000
C84         C  0.15246135  0.98812826  0.91302084     0.07600
C85         C  0.14349519  0.01775373  0.89456394    -0.02200
C86         C  0.12293421  0.01928656  0.85676260    -0.02200
C87         C  0.11084063  0.99104739  0.83790236     0.07800
C88         C  0.12578232  0.46019423  0.85468434    -0.02400
Br89       Br  0.11047453  0.42096256  0.82954262    -0.00900
Br90       Br  0.15926468  0.41840708  0.91835505    -0.01000
Br91       Br  0.11196808  0.06023430  0.83078274    -0.00900
Br92       Br  0.15827257  0.05613834  0.92281791    -0.00900
C93         C  0.13746105  0.95952419  0.10255443    -0.02000
C94         C  0.14949698  0.98726592  0.08172086     0.07600
C95         C  0.14208542  0.01718706  0.09897980    -0.02200
C96         C  0.12199205  0.01952394  0.13670891    -0.02200
C97         C  0.10911245  0.99178341  0.15718706     0.07800
C98         C  0.12056005  0.46191616  0.13882960    -0.02400
Br99       Br  0.09972184  0.42423778  0.16228175    -0.00900
Br100      Br  0.14934140  0.41848628  0.07535347    -0.01000
Br101      Br  0.11258244  0.06096953  0.16012669    -0.00900
Br102      Br  0.15854915  0.05502680  0.06937475    -0.00900
C103        C  0.27483716  0.45825433  0.01127398    -0.02000
C104        C  0.25272667  0.98529946  0.00217330     0.07600
C105        C  0.26847530  0.01441438  0.99510339    -0.02200
C106        C  0.30151499  0.01559789  0.99699793    -0.02200
C107        C  0.32310983  0.48930971  0.00528271     0.07800
C108        C  0.30787772  0.46005582  0.01332286    -0.02400
Br109      Br  0.33238489  0.42264911  0.02745738    -0.00900
Br110      Br  0.25372098  0.41811374  0.02100033    -0.01000
Br111      Br  0.32333375  0.05550174  0.98848483    -0.00900
Br112      Br  0.24471483  0.05269175  0.98338262    -0.00900
C113        C  0.05696440  0.40527518  0.35652821    -0.02000
C114        C  0.03148785  0.42438757  0.34196361     0.07600
C115        C  0.00150331  0.42036183  0.36214662    -0.02200
C116        C  0.99742376  0.39806285  0.39781863    -0.02200
C117        C  0.02336490  0.38052357  0.41437364     0.07800
C118        C  0.05300526  0.38361032  0.39310474    -0.02400
Br119      Br  0.08871009  0.35975078  0.41574945    -0.00900
Br120      Br  0.09727568  0.40866027  0.32624461    -0.01000
Br121      Br  0.95647763  0.39208832  0.42539844    -0.00900
Br122      Br  0.46655861  0.44745265  0.34471250    -0.00900
C123        C  0.99659922  0.40533440  0.64932833    -0.02000
C124        C  0.02533825  0.42106748  0.65836899     0.07600
C125        C  0.05169432  0.41624205  0.63018960    -0.02200
C126        C  0.04933072  0.39582398  0.59310338    -0.02200
C127        C  0.02030400  0.38118361  0.58286818     0.07800
C128        C  0.99402356  0.38553167  0.61127549    -0.02400
Br129      Br  0.45436220  0.36524615  0.59701646    -0.00900
Br130      Br  0.46102795  0.41040452  0.68939118    -0.01000
Br131      Br  0.08597960  0.38791189  0.55605050    -0.00900
Br132      Br  0.09033926  0.43983938  0.63938216    -0.00900
C133        C  0.51566409  0.09087953  0.34930158    -0.02000
C134        C  0.04281828  0.07262671  0.34055554     0.07600
C135        C  0.07025232  0.07656824  0.36753645    -0.02200
C136        C  0.06987756  0.09732640  0.40456002    -0.02200
C137        C  0.04196284  0.11346380  0.41540581     0.07800
C138        C  0.51508448  0.11087974  0.38711962    -0.02400
Br139      Br  0.47656557  0.13257544  0.40236124    -0.00900
Br140      Br  0.47903424  0.08835718  0.30987182    -0.01000
Br141      Br  0.10724742  0.10291694  0.44166017    -0.00900
Br142      Br  0.10733668  0.05117212  0.35751275    -0.00900
C143        C  0.50551820  0.06435979  0.62571590    -0.02000
C144        C  0.03035427  0.06462239  0.65815975     0.07600
C145        C  0.05452788  0.08758128  0.65457881    -0.02200
C146        C  0.05478628  0.10917131  0.61742969    -0.02200
C147        C  0.03093668  0.10770669  0.58377923     0.07800
C148        C  0.50574607  0.08604494  0.58878221    -0.02400
Br149      Br  0.47156130  0.08609306  0.54472074    -0.00900
Br150      Br  0.47240482  0.03275713  0.62909438    -0.01000
Br151      Br  0.08850560  0.13987504  0.61177669    -0.00900
Br152      Br  0.08710710  0.08981439  0.70081724    -0.00900
C153        C  0.99409474  0.25910803  0.50536174    -0.02000
C154        C  0.02118397  0.27845645  0.50286153     0.07600
C155        C  0.05142666  0.26481699  0.50164749    -0.02200
C156        C  0.05457527  0.23177157  0.50097684    -0.02200
C157        C  0.02751165  0.21242211  0.50279221     0.07800
C158        C  0.99727760  0.22596706  0.50553444    -0.02400
Br159      Br  0.46035449  0.19905975  0.50857220    -0.00900
Br160      Br  0.45279905  0.27808732  0.50827973    -0.01000
Br161      Br  0.09591045  0.21287557  0.49775064    -0.00900
Br162      Br  0.08853007  0.29144340  0.50212466    -0.00900
C163        C  0.03609215  0.67740216  0.50318085     0.02900
C164        C  0.03459850  0.65937780  0.54371838    -0.13200
C165        C  0.53903285  0.62654953  0.54270214     0.00400
C166        C  0.54449197  0.61186915  0.50098645    -0.11700
C167        C  0.54533147  0.62975959  0.46029887     0.02900
C168        C  0.04154264  0.66266172  0.46149364    -0.11200
H169        H  0.02992750  0.67082344  0.57582814     0.08500
H170        H  0.54711712  0.58628790  0.50002961     0.06000
H171        H  0.04214196  0.67663594  0.43007256     0.05900
C172        C  0.01873669  0.81202134  0.50319602     0.02900
C173        C  0.01931028  0.82843324  0.46115031    -0.13200
C174        C  0.01845672  0.86157211  0.46004760     0.00400
C175        C  0.01652038  0.87813660  0.50085513    -0.11700
C176        C  0.01624218  0.86183069  0.54286650     0.02900
C177        C  0.01713776  0.82868432  0.54408492    -0.11200
H178        H  0.02133450  0.81553697  0.42962031     0.08500
H179        H  0.01655347  0.90389342  0.50001276     0.06600
H180        H  0.01791872  0.81600654  0.57660201     0.05900
C181        C  0.22262889  0.48415897  0.99988300     0.02900
C182        C  0.20547419  0.48401785  0.04062879    -0.13200
C183        C  0.17251030  0.48458653  0.03915397     0.00400
C184        C  0.15675560  0.48516099  0.99709022    -0.11700
C185        C  0.17385958  0.48533035  0.95640745     0.02900
C186        C  0.20682614  0.48467374  0.95770944    -0.11200
H187        H  0.21771884  0.48425701  0.07325750     0.08500
H188        H  0.13115276  0.48607774  0.99600769     0.06000
H189        H  0.22010146  0.48517881  0.92616247     0.05900
C190        C  0.35326719  0.98899315  0.00677753     0.02900
C191        C  0.36893406  0.99520099  0.04787502    -0.13200
C192        C  0.40186364  0.99704677  0.04886431     0.00400
C193        C  0.41892357  0.99365493  0.00850667    -0.11700
C194        C  0.40339117  0.98737598  0.96735952     0.02900
C195        C  0.37044989  0.98474769  0.96661618    -0.11200
H196        H  0.35559633  0.99817311  0.07899428     0.08500
H197        H  0.44445748  0.99540052  0.00927699     0.06000
H198        H  0.35821474  0.97983245  0.93487810     0.05900
In199      In  0.03811126  0.99778989  0.25232066     1.36900
C200        C  0.48870121  0.00063007  0.19766210     0.77400
O201        O  0.02303235  0.52819345  0.30659505    -0.61100
O202        O  0.06716153  0.54214910  0.27866439    -0.52000
C203        C  0.03267808  0.94872593  0.30945715     0.70000
O204        O  0.01362838  0.95380837  0.27707424    -0.46800
C205        C  0.08480614  0.99451088  0.19279128     0.74800
O206        O  0.50660676  0.97684949  0.20007874    -0.58700
O207        O  0.08779739  0.47714209  0.22684456    -0.48800
O208        O  0.00095561  0.52460000  0.22259447    -0.55100
C209        C  0.04595253  0.54723592  0.30762153     0.84900
O210        O  0.05534556  0.96809297  0.31145004    -0.57000
O211        O  0.06318889  0.01481870  0.18996740    -0.60300
In212      In  0.03249187  0.99147061  0.75314554     1.36900
C213        C  0.48825813  0.98501486  0.81587354     0.77400
O214        O  0.00538845  0.96751933  0.69780466    -0.61100
O215        O  0.04706177  0.94552523  0.72382773    -0.52000
C216        C  0.03686890  0.53880817  0.69448091     0.70000
O217        O  0.01318679  0.53120133  0.71791809    -0.46800
C218        C  0.08838628  0.49153209  0.80517166     0.74800
O219        O  0.50069783  0.01121644  0.80522595    -0.58700
O220        O  0.08032920  0.97325873  0.77330508    -0.48800
O221        O  0.99863811  0.96167952  0.79442442    -0.55100
C222        C  0.02479759  0.94506272  0.69508041     0.84900
O223        O  0.06119730  0.52257258  0.70272835    -0.57000
O224        O  0.06581066  0.51047902  0.81003525    -0.60300
C225        C  0.41952780  0.00687158  0.88985971    -0.02000
C226        C  0.42207456  0.98400797  0.92538625     0.07600
C227        C  0.44447779  0.95945563  0.92259340    -0.02200
C228        C  0.46567546  0.95897292  0.88588189    -0.02200
C229        C  0.46370535  0.98244614  0.85104494     0.07800
C230        C  0.43968508  0.00549425  0.85210148    -0.02400
Br231      Br  0.43392642  0.03503319  0.80143660    -0.00900
Br232      Br  0.39057970  0.04191367  0.89460161    -0.01000
Br233      Br  0.99891387  0.92779058  0.88586785    -0.00900
Br234      Br  0.44667748  0.92688319  0.96980634    -0.00900
C235        C  0.42046722  0.97531921  0.12387960    -0.02000
C236        C  0.41921481  0.00078155  0.09208469     0.07600
C237        C  0.43795154  0.02799615  0.09856516    -0.02200
C238        C  0.46000137  0.02862372  0.13449049    -0.02200
C239        C  0.46243519  0.00241272  0.16489854     0.07800
C240        C  0.44173879  0.97638605  0.16071605    -0.02400
Br241      Br  0.44267644  0.94198925  0.20521020    -0.00900
Br242      Br  0.39511225  0.93775587  0.11501208    -0.01000
Br243      Br  0.99405222  0.56532873  0.13704350    -0.00900
Br244      Br  0.43405764  0.06395016  0.05712123    -0.00900
C245        C  0.14258173  0.96000543  0.89228399    -0.02000
C246        C  0.15675422  0.48694264  0.91269668     0.07600
C247        C  0.14821924  0.51658560  0.89380560    -0.02200
C248        C  0.12769784  0.51813549  0.85597197    -0.02200
C249        C  0.11518015  0.48995238  0.83763412     0.07800
C250        C  0.12195075  0.96132278  0.85454353    -0.02400
Br251      Br  0.10747060  0.92191605  0.82893574    -0.00900
Br252      Br  0.15577948  0.91963626  0.91805353    -0.01000
Br253      Br  0.11743960  0.55893090  0.82894398    -0.00900
Br254      Br  0.16351578  0.55498310  0.92144383    -0.00900
C255        C  0.14085696  0.45935943  0.10127772    -0.02000
C256        C  0.15419231  0.48680995  0.08135642     0.07600
C257        C  0.14797683  0.51680695  0.09934365    -0.02200
C258        C  0.12796006  0.51950283  0.13709765    -0.02200
C259        C  0.11383109  0.49209232  0.15665053     0.07800
C260        C  0.11737105  0.96166593  0.14043341    -0.02400
Br261      Br  0.09933330  0.92323748  0.16622153    -0.00900
Br262      Br  0.14730080  0.91875587  0.07728558    -0.01000
Br263      Br  0.12010053  0.56095288  0.16159584    -0.00900
Br264      Br  0.16570910  0.55432286  0.07044360    -0.00900
C265        C  0.26992645  0.95736865  0.01125248    -0.02000
C266        C  0.25718976  0.48577492  0.00145133     0.07600
C267        C  0.27244161  0.51510438  0.99388221    -0.02200
C268        C  0.30546518  0.51688473  0.99591283    -0.02200
C269        C  0.31871622  0.98764612  0.00560861     0.07800
C270        C  0.30301856  0.95856832  0.01310059    -0.02400
Br271      Br  0.32693586  0.92061552  0.02624570    -0.00900
Br272      Br  0.24811071  0.91751890  0.02016758    -0.01000
Br273      Br  0.32659043  0.55706129  0.98644602    -0.00900
Br274      Br  0.24799582  0.55285416  0.98144938    -0.00900
C275        C  0.05402858  0.90456535  0.35836526    -0.02000
C276        C  0.02811658  0.92303896  0.34355380     0.07600
C277        C  0.99820743  0.91833950  0.36377773    -0.02200
C278        C  0.99468827  0.89623879  0.39984177    -0.02200
C279        C  0.02108296  0.87961898  0.41676387     0.07800
C280        C  0.05064402  0.88329046  0.39551617    -0.02400
Br281      Br  0.08697900  0.86079502  0.41907868    -0.00900
Br282      Br  0.09406500  0.90788683  0.32738453    -0.01000
Br283      Br  0.95387240  0.88916429  0.42734371    -0.00900
Br284      Br  0.46247519  0.94402039  0.34569940    -0.00900
C285        C  0.99437437  0.90516222  0.65008815    -0.02000
C286        C  0.02289749  0.92133076  0.65904988     0.07600
C287        C  0.04953785  0.91629295  0.63148518    -0.02200
C288        C  0.04762568  0.89532218  0.59500035    -0.02200
C289        C  0.01889158  0.88002532  0.58507991     0.07800
C290        C  0.99239488  0.88446803  0.61299067    -0.02400
Br291      Br  0.45322946  0.86315808  0.59910000    -0.00900
Br292      Br  0.45808809  0.91122204  0.68844661    -0.01000
Br293      Br  0.08433758  0.88793792  0.55782269    -0.00900
Br294      Br  0.08787874  0.94045771  0.64035639    -0.00900
C295        C  0.52090303  0.59084121  0.35056588    -0.02000
C296        C  0.04784059  0.57258969  0.34145106     0.07600
C297        C  0.07538745  0.57637682  0.36821133    -0.02200
C298        C  0.07515365  0.59689097  0.40552869    -0.02200
C299        C  0.04737246  0.61323762  0.41648809     0.07800
C300        C  0.52058621  0.61091734  0.38828722    -0.02400
Br301      Br  0.48240098  0.63332334  0.40311434    -0.00900
Br302      Br  0.48410755  0.58829992  0.31146963    -0.01000
Br303      Br  0.11258497  0.60204748  0.44265907    -0.00900
Br304      Br  0.11257305  0.55140817  0.35696329    -0.00900
C305        C  0.51119930  0.56325129  0.62579408    -0.02000
C306        C  0.03568438  0.56361771  0.65860575     0.07600
C307        C  0.05974834  0.58670811  0.65552048    -0.02200
C308        C  0.06012474  0.60840238  0.61851256    -0.02200
C309        C  0.03643212  0.60696521  0.58463802     0.07800
C310        C  0.51150400  0.58509609  0.58909364    -0.02400
Br311      Br  0.47757351  0.58508455  0.54461927    -0.00900
Br312      Br  0.47832180  0.53136685  0.62846705    -0.01000
Br313      Br  0.09379074  0.63919864  0.61331626    -0.00900
Br314      Br  0.09190306  0.58904940  0.70233598    -0.00900
C315        C  0.99651258  0.75730457  0.50627393    -0.02000
C316        C  0.02295414  0.77753816  0.50446531     0.07600
C317        C  0.05365475  0.76495678  0.50332289    -0.02200
C318        C  0.05792523  0.73203885  0.50270245    -0.02200
C319        C  0.03151025  0.71179288  0.50423567     0.07800
C320        C  0.00081093  0.72431130  0.50655288    -0.02400
Br321      Br  0.46494936  0.69617212  0.50949118    -0.00900
Br322      Br  0.45469197  0.77485489  0.50785583    -0.01000
Br323      Br  0.09989884  0.71454906  0.50019577    -0.00900
Br324      Br  0.08982453  0.79285346  0.50339419    -0.00900
C325        C  0.53096334  0.17790002  0.50178641     0.02900
C326        C  0.52928333  0.15999252  0.54241923    -0.13200
C327        C  0.03331522  0.12710486  0.54157672     0.00400
C328        C  0.03860455  0.11224911  0.49992048    -0.11700
C329        C  0.03959335  0.13002906  0.45911836     0.02900
C330        C  0.53617631  0.16298486  0.46016810    -0.11200
H331        H  0.52489175  0.17159790  0.57449353     0.08500
H332        H  0.04110100  0.08664926  0.49911863     0.06000
H333        H  0.53701152  0.17688285  0.42869001     0.05900
C334        C  0.51817922  0.31311568  0.50113818     0.02900
C335        C  0.51985196  0.32939064  0.45899279    -0.13200
C336        C  0.52028946  0.36256734  0.45770081     0.00400
C337        C  0.51869472  0.37929324  0.49843192    -0.11700
C338        C  0.51736409  0.36312264  0.54051129     0.02900
C339        C  0.51687012  0.32996826  0.54187016    -0.11200
H340        H  0.52159008  0.31633056  0.42757376     0.08500
H341        H  0.51966263  0.40503388  0.49748802     0.06600
H342        H  0.51683680  0.31735843  0.57445198     0.05900
C343        C  0.71813012  0.98437141  0.00053825     0.02900
C344        C  0.70086517  0.98429437  0.04120404    -0.13200
C345        C  0.66791039  0.98536327  0.03956219     0.00400
C346        C  0.65226750  0.98641377  0.99740991    -0.11700
C347        C  0.66948301  0.98652538  0.95681358     0.02900
C348        C  0.70242648  0.98536052  0.95829319    -0.11200
H349        H  0.71304140  0.98411392  0.07393330     0.08500
H350        H  0.62674774  0.98760834  0.99619912     0.06000
H351        H  0.71579939  0.98574834  0.92676811     0.05900
C352        C  0.85764040  0.49090511  0.00636598     0.02900
C353        C  0.87329606  0.49744781  0.04735954    -0.13200
C354        C  0.90624966  0.49871543  0.04847490     0.00400
C355        C  0.92334870  0.49454230  0.00836639    -0.11700
C356        C  0.90784737  0.48784377  0.96737976     0.02900
C357        C  0.87487022  0.48567662  0.96652204    -0.11200
H358        H  0.85994697  0.50091918  0.07834737     0.08500
H359        H  0.94889936  0.49602663  0.00923168     0.06000
H360        H  0.86264879  0.48032422  0.93492683     0.05900
In361      In  0.54283639  0.49902027  0.25137746     1.36900
C362        C  0.99347815  0.50220210  0.19663535     0.77400
O363        O  0.51780302  0.02817958  0.30596027    -0.61100
O364        O  0.56263895  0.04093982  0.27938269    -0.52000
C365        C  0.53656801  0.45001363  0.30801912     0.70000
O366        O  0.51794192  0.45511060  0.27512122    -0.46800
C367        C  0.58969416  0.49529432  0.19233251     0.74800
O368        O  0.01094166  0.47811421  0.19951307    -0.58700
O369        O  0.58322587  0.97642067  0.22744818    -0.48800
O370        O  0.49570979  0.02287304  0.22413940    -0.55100
C371        C  0.54098898  0.04688352  0.30728172     0.84900
O372        O  0.55933333  0.46923469  0.31063201    -0.57000
O373        O  0.56843652  0.51597740  0.18944178    -0.60300
In374      In  0.53680621  0.49042759  0.75328142     1.36900
C375        C  0.99269246  0.48433451  0.81600554     0.77400
O376        O  0.50892331  0.46729833  0.69794642    -0.61100
O377        O  0.54997413  0.44405189  0.72373067    -0.52000
C378        C  0.53176934  0.03979206  0.69407579     0.70000
O379        O  0.50820701  0.03185749  0.71755284    -0.46800
C380        C  0.58407308  0.99255309  0.80525178     0.74800
O381        O  0.00426558  0.51064354  0.80383225    -0.58700
O382        O  0.58512993  0.47297589  0.77224966    -0.48800
O383        O  0.50394596  0.46071741  0.79614829    -0.55100
C384        C  0.52771514  0.44435534  0.69495116     0.84900
O385        O  0.55630138  0.02388894  0.70239092    -0.57000
O386        O  0.56196722  0.01219736  0.80893340    -0.60300
C387        C  0.92371918  0.50629181  0.88937607    -0.02000
C388        C  0.92658178  0.48399004  0.92557536     0.07600
C389        C  0.94943593  0.45978345  0.92363229    -0.02200
C390        C  0.97068525  0.45912240  0.88699912    -0.02200
C391        C  0.96823018  0.48193357  0.85131277     0.07800
C392        C  0.94378283  0.50455062  0.85159159    -0.02400
Br393      Br  0.93721683  0.53297645  0.79984171    -0.00900
Br394      Br  0.89464291  0.54131069  0.89332817    -0.01000
Br395      Br  0.50462785  0.42867453  0.88836144    -0.00900
Br396      Br  0.95229820  0.42799491  0.97189642    -0.00900
C397        C  0.92470995  0.47724166  0.12364377    -0.02000
C398        C  0.92362705  0.50254392  0.09159847     0.07600
C399        C  0.94263069  0.52960480  0.09765330    -0.02200
C400        C  0.96486235  0.53017305  0.13333241    -0.02200
C401        C  0.96714418  0.50409177  0.16399462     0.07800
C402        C  0.94603560  0.47834386  0.16040062    -0.02400
Br403      Br  0.94607458  0.44466710  0.20601600    -0.00900
Br404      Br  0.89890191  0.43991794  0.11535547    -0.01000
Br405      Br  0.48905816  0.06388398  0.13854459    -0.00900
Br406      Br  0.93867307  0.56547111  0.05608552    -0.00900
C407        C  0.64640436  0.45873616  0.89242994    -0.02000
C408        C  0.65247593  0.98820741  0.91301171     0.07600
C409        C  0.64350145  0.01782945  0.89454845    -0.02200
C410        C  0.62294297  0.01935310  0.85674184    -0.02200
C411        C  0.61086497  0.99110975  0.83787839     0.07800
C412        C  0.62573185  0.46012861  0.85475735    -0.02400
Br413      Br  0.61038934  0.42089983  0.82964726    -0.00900
Br414      Br  0.65920513  0.41832450  0.91841818    -0.01000
Br415      Br  0.61195242  0.06029131  0.83075572    -0.00900
Br416      Br  0.65826397  0.05622054  0.92279828    -0.00900
C417        C  0.63746277  0.95957836  0.10255953    -0.02000
C418        C  0.64947595  0.98732866  0.08172094     0.07600
C419        C  0.64203419  0.01724463  0.09897080    -0.02200
C420        C  0.62192489  0.01956815  0.13668445    -0.02200
C421        C  0.60907901  0.99181756  0.15718046     0.07800
C422        C  0.62053887  0.46186393  0.13888640    -0.02400
Br423      Br  0.59963252  0.42421728  0.16231673    -0.00900
Br424      Br  0.64926867  0.41839808  0.07541352    -0.01000
Br425      Br  0.61243080  0.06101286  0.16003729    -0.00900
Br426      Br  0.65849415  0.05509484  0.06939060    -0.00900
C427        C  0.77483053  0.45812965  0.01125119    -0.02000
C428        C  0.75272401  0.98535845  0.00221626     0.07600
C429        C  0.76847257  0.01447096  0.99512235    -0.02200
C430        C  0.80151283  0.01565459  0.99699853    -0.02200
C431        C  0.82310717  0.48917724  0.00523389     0.07800
C432        C  0.80787248  0.45992460  0.01327407    -0.02400
Br433      Br  0.83237696  0.42251282  0.02738822    -0.00900
Br434      Br  0.75370929  0.41799176  0.02097872    -0.01000
Br435      Br  0.82332946  0.05555544  0.98844536    -0.00900
Br436      Br  0.74471011  0.05274766  0.98340592    -0.00900
C437        C  0.55693043  0.40528976  0.35649658    -0.02000
C438        C  0.53145287  0.42440433  0.34194332     0.07600
C439        C  0.50146906  0.42037338  0.36212464    -0.02200
C440        C  0.49739243  0.39807064  0.39779239    -0.02200
C441        C  0.52333515  0.38052914  0.41433771     0.07800
C442        C  0.55297488  0.38362090  0.39306817    -0.02400
Br443      Br  0.58868798  0.35977737  0.41572201    -0.00900
Br444      Br  0.59724101  0.40868552  0.32621197    -0.01000
Br445      Br  0.45645333  0.39210776  0.42539970    -0.00900
Br446      Br  0.96659209  0.44743853  0.34472420    -0.00900
C447        C  0.49659463  0.40532711  0.64933095    -0.02000
C448        C  0.52531760  0.42110159  0.65833060     0.07600
C449        C  0.55165967  0.41631628  0.63010817    -0.02200
C450        C  0.54929788  0.39590005  0.59301921    -0.02200
C451        C  0.52028511  0.38121608  0.58282696     0.07800
C452        C  0.49401809  0.38552691  0.61127409    -0.02400
Br453      Br  0.95435391  0.36529453  0.59697234    -0.00900
Br454      Br  0.96100316  0.41048508  0.68931378    -0.01000
Br455      Br  0.58593232  0.38804893  0.55590640    -0.00900
Br456      Br  0.59028481  0.43995327  0.63926199    -0.00900
C457        C  0.01571186  0.09086119  0.34929045    -0.02000
C458        C  0.54276998  0.07265038  0.34054346     0.07600
C459        C  0.57021007  0.07658824  0.36751062    -0.02200
C460        C  0.56984538  0.09734029  0.40454185    -0.02200
C461        C  0.54193441  0.11347872  0.41540571     0.07800
C462        C  0.01511974  0.11086049  0.38710793    -0.02400
Br463      Br  0.97659264  0.13254775  0.40232988    -0.00900
Br464      Br  0.97910144  0.08835686  0.30981842    -0.01000
Br465      Br  0.60722398  0.10291776  0.44162584    -0.00900
Br466      Br  0.60728567  0.05118370  0.35746160    -0.00900
C467        C  0.00554823  0.06435568  0.62570510    -0.02000
C468        C  0.53032321  0.06463213  0.65817375     0.07600
C469        C  0.55449758  0.08759071  0.65458207    -0.02200
C470        C  0.55475363  0.10917711  0.61742803    -0.02200
C471        C  0.53089881  0.10771486  0.58378558     0.07800
C472        C  0.00578338  0.08603637  0.58876793    -0.02400
Br473      Br  0.97160629  0.08607857  0.54469363    -0.00900
Br474      Br  0.97241012  0.03278090  0.62911447    -0.01000
Br475      Br  0.58848154  0.13986927  0.61175085    -0.00900
Br476      Br  0.58709394  0.08981883  0.70079625    -0.00900
C477        C  0.49406687  0.25912574  0.50534289    -0.02000
C478        C  0.52115919  0.27847020  0.50284676     0.07600
C479        C  0.55139962  0.26482584  0.50163595    -0.02200
C480        C  0.55454366  0.23177970  0.50097316    -0.02200
C481        C  0.52747787  0.21243340  0.50279659     0.07800
C482        C  0.49724524  0.22598364  0.50553083    -0.02400
Br483      Br  0.96039133  0.19903661  0.50856770    -0.00900
Br484      Br  0.95282528  0.27806184  0.50833754    -0.01000
Br485      Br  0.59587614  0.21287841  0.49774316    -0.00900
Br486      Br  0.58850654  0.29144727  0.50209654    -0.00900
C487        C  0.53624636  0.67740806  0.50322996     0.02900
C488        C  0.53473653  0.65937770  0.54375946    -0.13200
C489        C  0.03890164  0.62654968  0.54267132     0.00400
C490        C  0.04435339  0.61186293  0.50095875    -0.11700
C491        C  0.04518144  0.62974475  0.46026316     0.02900
C492        C  0.54170452  0.66267588  0.46154121    -0.11200
H493        H  0.53005426  0.67081854  0.57586985     0.08500
H494        H  0.04698807  0.58628068  0.50001211     0.06000
H495        H  0.54230838  0.67665630  0.43012287     0.05900
C496        C  0.51881958  0.81200931  0.50320913     0.02900
C497        C  0.51938484  0.82841985  0.46116262    -0.13200
C498        C  0.51850507  0.86155792  0.46005884     0.00400
C499        C  0.51655032  0.87812036  0.50086522    -0.11700
C500        C  0.51628075  0.86181517  0.54287564     0.02900
C501        C  0.51720230  0.82867035  0.54409697    -0.11200
H502        H  0.52142126  0.81552432  0.42963338     0.08500
H503        H  0.51656379  0.90387976  0.50002290     0.06600
H504        H  0.51798902  0.81599473  0.57661245     0.05900
C505        C  0.72262278  0.48404579  0.99991109     0.02900
C506        C  0.70547802  0.48389961  0.04066663    -0.13200
C507        C  0.67251330  0.48447556  0.03920863     0.00400
C508        C  0.65674906  0.48506132  0.99715208    -0.11700
C509        C  0.67384349  0.48523728  0.95646050     0.02900
C510        C  0.70680990  0.48457365  0.95774632    -0.11200
H511        H  0.71772981  0.48413306  0.07328679     0.08500
H512        H  0.63114448  0.48598644  0.99608194     0.06000
H513        H  0.72007831  0.48508285  0.92619116     0.05900
C514        C  0.85326901  0.98905588  0.00677529     0.02900
C515        C  0.86894387  0.99526715  0.04786563    -0.13200
C516        C  0.90187389  0.99711229  0.04884493     0.00400
C517        C  0.91892736  0.99371691  0.00848139    -0.11700
C518        C  0.90338736  0.98743777  0.96733919     0.02900
C519        C  0.87044530  0.98481230  0.96660660    -0.11200
H520        H  0.85561119  0.99823872  0.07899091     0.08500
H521        H  0.94446235  0.99545641  0.00924381     0.06000
H522        H  0.85820469  0.97989835  0.93487114     0.05900
In523      In  0.53808757  0.99779502  0.25233924     1.36900
C524        C  0.98872339  0.00064208  0.19764203     0.77400
O525        O  0.52307285  0.52826408  0.30660558    -0.61100
O526        O  0.56722215  0.54216369  0.27868410    -0.52000
C527        C  0.53267927  0.94872729  0.30947816     0.70000
O528        O  0.51363364  0.95379415  0.27708504    -0.46800
C529        C  0.58477705  0.99452852  0.19279493     0.74800
O530        O  0.00661658  0.97685217  0.20006509    -0.58700
O531        O  0.58780155  0.47714148  0.22690952    -0.48800
O532        O  0.50098357  0.52467612  0.22263538    -0.55100
C533        C  0.54601571  0.54727945  0.30763390     0.84900
O534        O  0.55533111  0.96811270  0.31148333    -0.57000
O535        O  0.56313281  0.01480530  0.18995602    -0.60300
In536      In  0.53249675  0.99147010  0.75315388     1.36900
C537        C  0.98824285  0.98504151  0.81584881     0.77400
O538        O  0.50539837  0.96751389  0.69780147    -0.61100
O539        O  0.54705587  0.94551006  0.72385206    -0.52000
C540        C  0.53690006  0.53880922  0.69451016     0.70000
O541        O  0.51320220  0.53121148  0.71792087    -0.46800
C542        C  0.58836649  0.49149245  0.80521695     0.74800
O543        O  0.00074617  0.01122551  0.80527523    -0.58700
O544        O  0.58038981  0.97334868  0.77322806    -0.48800
O545        O  0.49871489  0.96165012  0.79451615    -0.55100
C546        C  0.52479967  0.94505010  0.69509189     0.84900
O547        O  0.56121808  0.52256429  0.70278385    -0.57000
O548        O  0.56583898  0.51050874  0.81000168    -0.60300
C549        C  0.91954054  0.00694462  0.88985224    -0.02000
C550        C  0.92206396  0.98406407  0.92536000     0.07600
C551        C  0.94444384  0.95949125  0.92254764    -0.02200
C552        C  0.96563902  0.95900080  0.88583373    -0.02200
C553        C  0.96368915  0.98248719  0.85101548     0.07800
C554        C  0.93969836  0.00556405  0.85209466    -0.02400
Br555      Br  0.93399567  0.03514868  0.80147108    -0.00900
Br556      Br  0.89062627  0.04201117  0.89462269    -0.01000
Br557      Br  0.49896822  0.92778208  0.88593932    -0.00900
Br558      Br  0.94661922  0.92690415  0.96973956    -0.00900
C559        C  0.92047960  0.97536171  0.12384643    -0.02000
C560        C  0.91923055  0.00083271  0.09206559     0.07600
C561        C  0.93797028  0.02804294  0.09856482    -0.02200
C562        C  0.96002240  0.02865592  0.13448876    -0.02200
C563        C  0.96245508  0.00243535  0.16488000     0.07800
C564        C  0.94175280  0.97641377  0.16068298    -0.02400
Br565      Br  0.94268033  0.94200383  0.20515640    -0.00900
Br566      Br  0.89511297  0.93780816  0.11496144    -0.01000
Br567      Br  0.49407475  0.56543108  0.13709338    -0.00900
Br568      Br  0.93407298  0.06401549  0.05715749    -0.00900
C569        C  0.64261178  0.96008087  0.89226760    -0.02000
C570        C  0.65673035  0.48685990  0.91275650     0.07600
C571        C  0.64822080  0.51650726  0.89385634    -0.02200
C572        C  0.62770466  0.51806952  0.85601660    -0.02200
C573        C  0.61515553  0.48989415  0.83769254     0.07800
C574        C  0.62198669  0.96139097  0.85451886    -0.02400
Br575      Br  0.60752036  0.92198420  0.82889843    -0.00900
Br576      Br  0.65581723  0.91971592  0.91804096    -0.01000
Br577      Br  0.61750768  0.55887136  0.82895760    -0.00900
Br578      Br  0.66354795  0.55489526  0.92148853    -0.00900
C579        C  0.64083508  0.45928186  0.10133746    -0.02000
C580        C  0.65420634  0.48671643  0.08141980     0.07600
C581        C  0.64802965  0.51672056  0.09941226    -0.02200
C582        C  0.62801710  0.51944022  0.13716619    -0.02200
C583        C  0.61385236  0.49204761  0.15671306     0.07800
C584        C  0.61736598  0.96170603  0.14043448    -0.02400
Br585      Br  0.59934547  0.92326716  0.16621425    -0.00900
Br586      Br  0.64734961  0.91881644  0.07730757    -0.01000
Br587      Br  0.62020124  0.56089911  0.16166325    -0.00900
Br588      Br  0.66580207  0.55421695  0.07051312    -0.00900
C589        C  0.76992543  0.95743232  0.01132479    -0.02000
C590        C  0.75718451  0.48565584  0.00145909     0.07600
C591        C  0.77243912  0.51498421  0.99389364    -0.02200
C592        C  0.80546368  0.51675772  0.99589588    -0.02200
C593        C  0.81871639  0.98770640  0.00562343     0.07800
C594        C  0.80301871  0.95863298  0.01316000    -0.02400
Br595      Br  0.82693683  0.92068761  0.02634934    -0.00900
Br596      Br  0.74811109  0.91758754  0.02030150    -0.01000
Br597      Br  0.82659201  0.55693470  0.98644833    -0.00900
Br598      Br  0.74799619  0.55274316  0.98151266    -0.00900
C599        C  0.55404481  0.90455971  0.35835928    -0.02000
C600        C  0.52812908  0.92303606  0.34357174     0.07600
C601        C  0.49822625  0.91833246  0.36381180    -0.02200
C602        C  0.49471892  0.89623152  0.39987795    -0.02200
C603        C  0.52111849  0.87960792  0.41677657     0.07800
C604        C  0.55067237  0.88327969  0.39550704    -0.02400
Br605      Br  0.58701514  0.86077967  0.41903556    -0.00900
Br606      Br  0.59406629  0.90787997  0.32734039    -0.01000
Br607      Br  0.45391288  0.88916251  0.42741510    -0.00900
Br608      Br  0.96246543  0.94403958  0.34565946    -0.00900
C609        C  0.49438411  0.90514782  0.65008020    -0.02000
C610        C  0.52290522  0.92131743  0.65905827     0.07600
C611        C  0.54954880  0.91628798  0.63149562    -0.02200
C612        C  0.54764629  0.89531758  0.59500960    -0.02200
C613        C  0.51891844  0.88001130  0.58508625     0.07800
C614        C  0.49241400  0.88445474  0.61297975    -0.02400
Br615      Br  0.95321209  0.86315457  0.59916031    -0.00900
Br616      Br  0.95809237  0.91123218  0.68848634    -0.01000
Br617      Br  0.58435608  0.88796349  0.55781171    -0.00900
Br618      Br  0.58787637  0.94047390  0.64035755    -0.00900
C619        C  0.02079872  0.59078214  0.35053714    -0.02000
C620        C  0.54793134  0.57263264  0.34146157     0.07600
C621        C  0.57548663  0.57639755  0.36821239    -0.02200
C622        C  0.57527385  0.59690575  0.40553637    -0.02200
C623        C  0.54750415  0.61326301  0.41651640     0.07800
C624        C  0.02046271  0.61086980  0.38824627    -0.02400
Br625      Br  0.98226578  0.63326814  0.40303273    -0.00900
Br626      Br  0.98401399  0.58820612  0.31142547    -0.01000
Br627      Br  0.61271534  0.60203586  0.44265418    -0.00900
Br628      Br  0.61265173  0.55140150  0.35695365    -0.00900
C629        C  0.01111301  0.56326073  0.62581257    -0.02000
C630        C  0.53574314  0.56361582  0.65862933     0.07600
C631        C  0.55980772  0.58670778  0.65557835    -0.02200
C632        C  0.56021122  0.60839780  0.61856607    -0.02200
C633        C  0.53654060  0.60695957  0.58465956     0.07800
C634        C  0.01139765  0.58510240  0.58910707    -0.02400
Br635      Br  0.97744522  0.58508452  0.54466848    -0.00900
Br636      Br  0.97821695  0.53139727  0.62855474    -0.01000
Br637      Br  0.59388537  0.63918858  0.61340617    -0.00900
Br638      Br  0.59192765  0.58905504  0.70244192    -0.00900
C639        C  0.49662604  0.75728431  0.50629217    -0.02000
C640        C  0.52305731  0.77753080  0.50448407     0.07600
C641        C  0.55376555  0.76496732  0.50335518    -0.02200
C642        C  0.55805425  0.73205207  0.50275613    -0.02200
C643        C  0.53164900  0.71179370  0.50428681     0.07800
C644        C  0.50094179  0.72429460  0.50657917    -0.02400
Br645      Br  0.96480601  0.69620745  0.50950368    -0.00900
Br646      Br  0.95458825  0.77489753  0.50785102    -0.01000
Br647      Br  0.60003788  0.71458346  0.50027343    -0.00900
Br648      Br  0.58991963  0.79288478  0.50340795    -0.00900
loop_ 
_geom_bond_atom_site_label_1 
_geom_bond_atom_site_label_2 
_geom_bond_distance 
_geom_bond_site_symmetry_2 
_ccdc_geom_bond_type 
C1            C2   1.399       .  A
C1            C6   1.400       .  A
C1          C157   1.465       .  S
C2          C327   1.398       .  A
C2            H7   1.084       .  S
C3            C4   1.400       .  A
C3          C326   1.398       .  A
C3          C471   1.473       .  S
C4            C5   1.399       .  A
C4            H8   1.086       .  S
C5          C330   1.398       .  A
C5          C461   1.473       .  S
C6          C329   1.398       .  A
C6            H9   1.084       .  S
C10          C11   1.403       .  A
C10          C15   1.400       .  A
C10         C154   1.467       .  S
C11          C12   1.399       .  A
C11          H16   1.084       .  S
C12          C13   1.398       .  A
C12         C117   1.472       .  S
C13          C14   1.398       .  A
C13          H17   1.086       .  S
C14          C15   1.398       .  A
C14         C127   1.471       .  S
C15          H18   1.084       .  S
C19          C20   1.401       .  A
C19          C24   1.401   1_554  A
C19         C104   1.467       .  S
C20          C21   1.398       .  A
C20          H25   1.085       .  S
C21          C22   1.397   1_554  A
C21          C94   1.468       .  S
C22          C23   1.398       .  A
C22          H26   1.083       .  S
C23          C24   1.398       .  A
C23          C84   1.468       .  S
C24          H27   1.086       .  S
C28          C29   1.399       .  A
C28          C33   1.401   1_554  A
C28         C107   1.465       .  S
C29          C30   1.398       .  A
C29          H34   1.084       .  S
C30          C31   1.397       .  A
C30          C74   1.469       .  S
C31          C32   1.397   1_554  A
C31          H35   1.085       .  S
C32          C33   1.400       .  A
C32          C64   1.474       .  S
C33          H36   1.084       .  S
In37         O48   2.234       .  S
In37         O42   2.230       .  S
In37         O49   2.224       .  S
In37        O201   2.221       .  S
In37        O202   2.247       .  S
In37        O368   2.218       .  S
In37        O207   2.247       .  S
In37        O208   2.233       .  S
C38          C77   1.466       .  S
C38          O44   1.260       .  A
C38         O532   1.261       .  A
O39        In199   2.223   1_545  S
O39          C47   1.259       .  A
O40        In199   2.247   1_545  S
O40          C47   1.261       .  A
C41         C114   1.470       .  S
C41          O48   1.261       .  A
C41          O42   1.258       .  A
C43         C259   1.474       .  S
C43          O49   1.258       .  A
C43         O207   1.261       .  A
O44        In361   2.218       .  S
O45        In199   2.248       .  S
O45         C205   1.260       .  A
O46        In199   2.234   1_645  S
O46         C524   1.261       .  A
C47         C134   1.473       .  S
In50         O52   2.235       .  S
In50         O53   2.227       .  S
In50         O58   2.242       .  S
In50         O59   2.244       .  S
In50        O223   2.242       .  S
In50        O217   2.228       .  S
In50        O381   2.214       .  S
In50        O224   2.237       .  S
C51          C67   1.470       .  S
C51          O57   1.258       .  A
C51         O383   1.260       .  A
O52          C60   1.260       .  A
O53          C60   1.261       .  A
C54         C144   1.471       .  S
C54          O61   1.259       .  A
C54          O55   1.256       .  A
O55        In212   2.232   1_545  S
C56          C87   1.480       .  S
C56          O62   1.259   1_565  A
C56         O220   1.258       .  A
O57        In374   2.214       .  S
O58         C218   1.259       .  A
O59         C375   1.260   1_455  A
C60         C124   1.469       .  S
O61        In212   2.243   1_545  S
O62        In212   2.238   1_545  S
C63          C64   1.409       .  A
C63          C68   1.402       .  A
C63         Br70   1.932       .  S
C64          C65   1.412       .  A
C65          C66   1.405       .  A
C65         Br72   1.934       .  S
C66          C67   1.411       .  A
C66        Br395   1.933       .  S
C67          C68   1.411       .  A
C68         Br69   1.934       .  S
Br71        C390   1.933   1_455  S
C73          C74   1.409       .  A
C73          C78   1.402       .  A
C73         Br80   1.932       .  S
C74          C75   1.408       .  A
C75          C76   1.403       .  A
C75         Br82   1.931       .  S
C76          C77   1.410       .  A
C76        Br567   1.932       .  S
C77          C78   1.409       .  A
C78         Br79   1.932       .  S
Br81        C562   1.932       .  S
C83          C88   1.405       .  A
C83         C246   1.404       .  A
C83         Br90   1.932       .  S
C84          C85   1.405   1_565  A
C84         C245   1.403       .  A
C85          C86   1.405       .  A
C85         Br92   1.932       .  S
C86          C87   1.415   1_545  A
C86         Br91   1.931       .  S
C87         C250   1.418       .  A
C88         C249   1.416       .  A
C88         Br89   1.931       .  S
C93          C94   1.405       .  A
C93         C260   1.406       .  A
C93        Br262   1.932       .  S
C94          C95   1.405   1_565  A
C95          C96   1.404       .  A
C95        Br102   1.932       .  S
C96          C97   1.414   1_545  A
C96        Br101   1.933       .  S
C97         C260   1.416       .  A
C97         C205   1.476       .  S
C98         C255   1.406       .  A
C98         C259   1.415       .  A
C98         Br99   1.932       .  S
Br100       C255   1.932       .  S
C103        C108   1.403       .  A
C103        C266   1.407       .  A
C103       Br110   1.929       .  S
C104        C105   1.408   1_564  A
C104        C265   1.408       .  A
C105        C106   1.402       .  A
C105       Br112   1.930       .  S
C106        C269   1.406   1_546  A
C106       Br111   1.930       .  S
C107        C108   1.407       .  A
C107        C268   1.407   1_554  A
C108       Br109   1.929       .  S
C113        C114   1.409       .  A
C113        C118   1.405       .  A
C113       Br120   1.933       .  S
C114        C115   1.413       .  A
C115        C116   1.404   1_455  A
C115       Br446   1.933   1_455  S
C116        C117   1.406   1_655  A
C116       Br121   1.932       .  S
C117        C118   1.410       .  A
C118       Br119   1.928       .  S
Br122       C439   1.933       .  S
C123        C124   1.411   1_655  A
C123        C128   1.408       .  A
C123       Br454   1.930       .  S
C124        C125   1.410       .  A
C125        C126   1.401       .  A
C125       Br132   1.933       .  S
C126        C127   1.408       .  A
C126       Br131   1.933       .  S
C127        C128   1.408   1_455  A
C128       Br453   1.930       .  S
Br129       C452   1.930       .  S
Br130       C447   1.930       .  S
C133        C138   1.404       .  A
C133        C458   1.412       .  A
C133       Br140   1.933       .  S
C134        C135   1.413       .  A
C134        C457   1.412       .  A
C135        C136   1.406       .  A
C135       Br142   1.932       .  S
C136        C137   1.408       .  A
C136       Br141   1.931       .  S
C137        C462   1.409       .  A
C137        C329   1.473       .  S
C138        C461   1.409       .  A
C138       Br139   1.933       .  S
C143        C148   1.403       .  A
C143        C468   1.413       .  A
C143       Br150   1.934       .  S
C144        C145   1.410       .  A
C144        C467   1.413       .  A
C145        C146   1.406       .  A
C145       Br152   1.931       .  S
C146        C147   1.409       .  A
C146       Br151   1.931       .  S
C147        C472   1.408       .  A
C147        C327   1.473       .  S
C148        C471   1.408       .  A
C148       Br149   1.934       .  S
C153        C154   1.408   1_655  A
C153        C158   1.404       .  A
C153       Br484   1.929       .  S
C154        C155   1.408       .  A
C155        C156   1.401       .  A
C155       Br162   1.929       .  S
C156        C157   1.406       .  A
C156       Br161   1.931       .  S
C157        C158   1.408   1_455  A
C158       Br483   1.931       .  S
Br159       C482   1.931       .  S
Br160       C477   1.929       .  S
C163        C164   1.399       .  A
C163        C168   1.400       .  A
C163        C319   1.465       .  S
C164        C489   1.398       .  A
C164        H169   1.084       .  S
C165        C488   1.398       .  A
C165        C166   1.400       .  A
C165        C633   1.472       .  S
C166        C167   1.399       .  A
C166        H170   1.086       .  S
C167        C492   1.398       .  A
C167        C623   1.473       .  S
C168        C491   1.398       .  A
C168        H171   1.084       .  S
C172        C173   1.401       .  A
C172        C177   1.401       .  A
C172        C316   1.466       .  S
C173        C174   1.398       .  A
C173        H178   1.084       .  S
C174        C175   1.398       .  A
C174        C279   1.471       .  S
C175        C176   1.398       .  A
C175        H179   1.086       .  S
C176        C177   1.398       .  A
C176        C289   1.470       .  S
C177        H180   1.084       .  S
C181        C182   1.400   1_556  A
C181        C186   1.401       .  A
C181        C266   1.467   1_556  S
C182        C183   1.398       .  A
C182        H187   1.084       .  S
C183        C184   1.397   1_554  A
C183        C256   1.467       .  S
C184        C185   1.398       .  A
C184        H188   1.086       .  S
C185        C186   1.398       .  A
C185        C246   1.468       .  S
C186        H189   1.084       .  S
C190        C191   1.399       .  A
C190        C195   1.401   1_554  A
C190        C269   1.465       .  S
C191        C192   1.398       .  A
C191        H196   1.084       .  S
C192        C193   1.398       .  A
C192        C236   1.470   1_565  S
C193        C194   1.398   1_554  A
C193        H197   1.085       .  S
C194        C195   1.400       .  A
C194        C226   1.475       .  S
C195        H198   1.084       .  S
In199       O210   2.239       .  S
In199       O204   2.233       .  S
In199       O530   2.218       .  S
In199       O211   2.224   1_565  S
C200        C239   1.466       .  S
C200        O206   1.261   1_545  A
C200        O370   1.261       .  A
O201        C209   1.259       .  A
O202        C209   1.261       .  A
C203        C276   1.473       .  S
C203        O210   1.260       .  A
C203        O204   1.257       .  A
C205        O211   1.258   1_565  A
O206       In523   2.217       .  S
O208        C362   1.261   1_455  A
C209        C296   1.472       .  S
In212       O214   2.234       .  S
In212       O215   2.224       .  S
In212       O543   2.216   1_565  S
In212       O220   2.243       .  S
In212       O221   2.247   1_455  S
C213        C229   1.470       .  S
C213        O219   1.258   1_565  A
C213        O545   1.260       .  A
O214        C222   1.261       .  A
O215        C222   1.261       .  A
C216        C306   1.470       .  S
C216        O223   1.260       .  A
C216        O217   1.256       .  A
C218        C249   1.477       .  S
C218        O224   1.259       .  A
O219       In536   2.216   1_545  S
O221        C537   1.260       .  A
C222        C286   1.469       .  S
C225        C226   1.409   1_545  A
C225        C230   1.403       .  A
C225       Br232   1.931       .  S
C226        C227   1.411       .  A
C227        C228   1.405       .  A
C227       Br234   1.933       .  S
C228        C229   1.411       .  A
C228       Br557   1.932       .  S
C229        C230   1.411   1_565  A
C230       Br231   1.934       .  S
Br233       C552   1.932       .  S
C235        C236   1.409   1_565  A
C235        C240   1.403       .  A
C235       Br242   1.932       .  S
C236        C237   1.408       .  A
C237        C238   1.403       .  A
C237       Br244   1.932       .  S
C238        C239   1.410       .  A
C238       Br405   1.932       .  S
C239        C240   1.409   1_545  A
C240       Br241   1.932       .  S
Br243       C400   1.932       .  S
C245        C250   1.405       .  A
C245       Br252   1.933       .  S
C246        C247   1.405       .  A
C247        C248   1.405       .  A
C247       Br254   1.931       .  S
C248        C249   1.413       .  A
C248       Br253   1.931       .  S
C250       Br251   1.932       .  S
C255        C256   1.405       .  A
C256        C257   1.405       .  A
C257        C258   1.404       .  A
C257       Br264   1.932       .  S
C258        C259   1.413       .  A
C258       Br263   1.932       .  S
C260       Br261   1.932       .  S
C265        C270   1.404       .  A
C265       Br272   1.929       .  S
C266        C267   1.408   1_554  A
C267        C268   1.402       .  A
C267       Br274   1.930       .  S
C268       Br273   1.930       .  S
C269        C270   1.407       .  A
C270       Br271   1.929       .  S
C275        C276   1.410       .  A
C275        C280   1.405       .  A
C275       Br282   1.932       .  S
C276        C277   1.414   1_455  A
C277        C278   1.404       .  A
C277       Br608   1.932       .  S
C278        C279   1.405   1_655  A
C278       Br283   1.932       .  S
C279        C280   1.409       .  A
C280       Br281   1.929       .  S
Br284       C601   1.932       .  S
C285        C286   1.411   1_655  A
C285        C290   1.407       .  A
C285       Br616   1.930       .  S
C286        C287   1.410       .  A
C287        C288   1.401       .  A
C287       Br294   1.934       .  S
C288        C289   1.407       .  A
C288       Br293   1.933       .  S
C289        C290   1.408   1_455  A
C290       Br615   1.930       .  S
Br291       C614   1.930       .  S
Br292       C609   1.930       .  S
C295        C620   1.411       .  A
C295        C300   1.404       .  A
C295       Br302   1.933       .  S
C296        C619   1.411       .  A
C296        C297   1.412       .  A
C297        C298   1.406       .  A
C297       Br304   1.932       .  S
C298        C299   1.408       .  A
C298       Br303   1.932       .  S
C299        C624   1.409       .  A
C299        C491   1.473       .  S
C300        C623   1.409       .  A
C300       Br301   1.932       .  S
C305        C630   1.412       .  A
C305        C310   1.403       .  A
C305       Br312   1.934       .  S
C306        C629   1.412       .  A
C306        C307   1.410       .  A
C307        C308   1.405       .  A
C307       Br314   1.931       .  S
C308        C309   1.409       .  A
C308       Br313   1.931       .  S
C309        C634   1.408       .  A
C309        C489   1.472       .  S
C310        C633   1.408       .  A
C310       Br311   1.934       .  S
C315        C316   1.407   1_655  A
C315        C320   1.404   1_655  A
C315       Br646   1.929       .  S
C316        C317   1.408       .  A
C317        C318   1.401       .  A
C317       Br324   1.929       .  S
C318        C319   1.406       .  A
C318       Br323   1.930       .  S
C319        C320   1.408       .  A
C320       Br645   1.930   1_455  S
Br321       C644   1.930       .  S
Br322       C639   1.929       .  S
C325        C326   1.399       .  A
C325        C330   1.400       .  A
C325        C481   1.465       .  S
C326        H331   1.084       .  S
C327        C328   1.400       .  A
C328        C329   1.399       .  A
C328        H332   1.086       .  S
C330        H333   1.084       .  S
C334        C335   1.403       .  A
C334        C339   1.400       .  A
C334        C478   1.467       .  S
C335        C336   1.399       .  A
C335        H340   1.083       .  S
C336        C337   1.398       .  A
C336        C441   1.472       .  S
C337        C338   1.398       .  A
C337        H341   1.086       .  S
C338        C339   1.398       .  A
C338        C451   1.471       .  S
C339        H342   1.084       .  S
C343        C344   1.401       .  A
C343        C348   1.401   1_554  A
C343        C428   1.467       .  S
C344        C345   1.398       .  A
C344        H349   1.085       .  S
C345        C346   1.397   1_554  A
C345        C418   1.468       .  S
C346        C347   1.398       .  A
C346        H350   1.083       .  S
C347        C348   1.398       .  A
C347        C408   1.468       .  S
C348        H351   1.086       .  S
C352        C353   1.399       .  A
C352        C357   1.401   1_554  A
C352        C431   1.465       .  S
C353        C354   1.398       .  A
C353        H358   1.084       .  S
C354        C355   1.397       .  A
C354        C398   1.469       .  S
C355        C356   1.397   1_554  A
C355        H359   1.085       .  S
C356        C357   1.400       .  A
C356        C388   1.474       .  S
C357        H360   1.084       .  S
In361       O525   2.221       .  S
In361       O526   2.246       .  S
In361       O372   2.234       .  S
In361       O366   2.230       .  S
In361       O531   2.247       .  S
In361       O532   2.233       .  S
In361       O373   2.224       .  S
C362        C401   1.466       .  S
C362        O368   1.260   1_655  A
O363       In523   2.223   1_545  S
O363        C371   1.259       .  A
O364       In523   2.247   1_545  S
O364        C371   1.261       .  A
C365        C438   1.470       .  S
C365        O372   1.261       .  A
C365        O366   1.258       .  A
C367        C583   1.474       .  S
C367        O531   1.261       .  A
C367        O373   1.258       .  A
O369       In523   2.248       .  S
O369        C529   1.260       .  A
O370       In523   2.234   1_545  S
C371        C458   1.473       .  S
In374       O376   2.236       .  S
In374       O377   2.227       .  S
In374       O547   2.242       .  S
In374       O541   2.229       .  S
In374       O382   2.242       .  S
In374       O383   2.244       .  S
In374       O548   2.238       .  S
C375        C391   1.470       .  S
C375        O381   1.258   1_655  A
O376        C384   1.260       .  A
O377        C384   1.261       .  A
C378        C468   1.472       .  S
C378        O385   1.259       .  A
C378        O379   1.256       .  A
O379       In536   2.232   1_545  S
C380        C411   1.480       .  S
C380        O544   1.258       .  A
C380        O386   1.259   1_565  A
O382        C542   1.259       .  A
C384        C448   1.469       .  S
O385       In536   2.243   1_545  S
O386       In536   2.238   1_545  S
C387        C388   1.409       .  A
C387        C392   1.402       .  A
C387       Br394   1.932       .  S
C388        C389   1.412       .  A
C389        C390   1.405       .  A
C389       Br396   1.934       .  S
C390        C391   1.411       .  A
C391        C392   1.411       .  A
C392       Br393   1.934       .  S
C397        C398   1.409       .  A
C397        C402   1.402       .  A
C397       Br404   1.932       .  S
C398        C399   1.408       .  A
C399        C400   1.403       .  A
C399       Br406   1.931       .  S
C400        C401   1.410       .  A
C401        C402   1.409       .  A
C402       Br403   1.932       .  S
C407        C570   1.404       .  A
C407        C412   1.405       .  A
C407       Br414   1.932       .  S
C408        C569   1.404       .  A
C408        C409   1.405   1_565  A
C409        C410   1.405       .  A
C409       Br416   1.932       .  S
C410        C411   1.415   1_545  A
C410       Br415   1.931       .  S
C411        C574   1.418       .  A
C412        C573   1.416       .  A
C412       Br413   1.931       .  S
C417        C418   1.405       .  A
C417        C584   1.406       .  A
C417       Br586   1.932       .  S
C418        C419   1.405   1_565  A
C419        C420   1.404       .  A
C419       Br426   1.932       .  S
C420        C421   1.414   1_545  A
C420       Br425   1.933       .  S
C421        C584   1.416       .  A
C421        C529   1.476       .  S
C422        C579   1.406       .  A
C422        C583   1.415       .  A
C422       Br423   1.932       .  S
Br424       C579   1.932       .  S
C427        C590   1.407       .  A
C427        C432   1.403       .  A
C427       Br434   1.929       .  S
C428        C589   1.408       .  A
C428        C429   1.408   1_564  A
C429        C430   1.402       .  A
C429       Br436   1.930       .  S
C430        C593   1.406   1_546  A
C430       Br435   1.930       .  S
C431        C592   1.407   1_554  A
C431        C432   1.407       .  A
C432       Br433   1.929       .  S
C437        C438   1.409       .  A
C437        C442   1.405       .  A
C437       Br444   1.933       .  S
C438        C439   1.413       .  A
C439        C440   1.404       .  A
C440        C441   1.406       .  A
C440       Br445   1.932       .  S
C441        C442   1.410       .  A
C442       Br443   1.928       .  S
C447        C448   1.411       .  A
C447        C452   1.408       .  A
C448        C449   1.410       .  A
C449        C450   1.401       .  A
C449       Br456   1.933       .  S
C450        C451   1.408       .  A
C450       Br455   1.933       .  S
C451        C452   1.408       .  A
C457        C462   1.404       .  A
C457       Br464   1.933   1_455  S
C458        C459   1.413       .  A
C459        C460   1.406       .  A
C459       Br466   1.932       .  S
C460        C461   1.408       .  A
C460       Br465   1.931       .  S
C462       Br463   1.933   1_455  S
C467        C472   1.403       .  A
C467       Br474   1.934   1_455  S
C468        C469   1.410       .  A
C469        C470   1.406       .  A
C469       Br476   1.931       .  S
C470        C471   1.409       .  A
C470       Br475   1.931       .  S
C472       Br473   1.934   1_455  S
C477        C478   1.408       .  A
C477        C482   1.405       .  A
C478        C479   1.408       .  A
C479        C480   1.401       .  A
C479       Br486   1.929       .  S
C480        C481   1.406       .  A
C480       Br485   1.931       .  S
C481        C482   1.408       .  A
C487        C488   1.399       .  A
C487        C492   1.400       .  A
C487        C643   1.465       .  S
C488        H493   1.084       .  S
C489        C490   1.400       .  A
C490        C491   1.399       .  A
C490        H494   1.086       .  S
C492        H495   1.084       .  S
C496        C497   1.401       .  A
C496        C501   1.401       .  A
C496        C640   1.465       .  S
C497        C498   1.398       .  A
C497        H502   1.084       .  S
C498        C499   1.398       .  A
C498        C603   1.471       .  S
C499        C500   1.398       .  A
C499        H503   1.086       .  S
C500        C501   1.398       .  A
C500        C613   1.470       .  S
C501        H504   1.084       .  S
C505        C506   1.400   1_556  A
C505        C510   1.401       .  A
C505        C590   1.467   1_556  S
C506        C507   1.398       .  A
C506        H511   1.084       .  S
C507        C508   1.397   1_554  A
C507        C580   1.467       .  S
C508        C509   1.398       .  A
C508        H512   1.086       .  S
C509        C510   1.398       .  A
C509        C570   1.468       .  S
C510        H513   1.084       .  S
C514        C515   1.399       .  A
C514        C519   1.401   1_554  A
C514        C593   1.466       .  S
C515        C516   1.398       .  A
C515        H520   1.084       .  S
C516        C517   1.398       .  A
C516        C560   1.470   1_565  S
C517        C518   1.398   1_554  A
C517        H521   1.085       .  S
C518        C519   1.400       .  A
C518        C550   1.475       .  S
C519        H522   1.084       .  S
In523       O534   2.239       .  S
In523       O528   2.233       .  S
In523       O535   2.224   1_565  S
C524        C563   1.466       .  S
C524        O530   1.261   1_645  A
O525        C533   1.259       .  A
O526        C533   1.261       .  A
C527        C600   1.473       .  S
C527        O534   1.260       .  A
C527        O528   1.257       .  A
C529        O535   1.258   1_565  A
C533        C620   1.472       .  S
In536       O538   2.235       .  S
In536       O539   2.224       .  S
In536       O544   2.243       .  S
In536       O545   2.247       .  S
C537        C553   1.470       .  S
C537        O543   1.257   1_665  A
O538        C546   1.261       .  A
O539        C546   1.261       .  A
C540        C630   1.470       .  S
C540        O547   1.260       .  A
C540        O541   1.256       .  A
C542        C573   1.477       .  S
C542        O548   1.259       .  A
C546        C610   1.469       .  S
C549        C550   1.409   1_545  A
C549        C554   1.403       .  A
C549       Br556   1.931       .  S
C550        C551   1.411       .  A
C551        C552   1.405       .  A
C551       Br558   1.933       .  S
C552        C553   1.411       .  A
C553        C554   1.411   1_565  A
C554       Br555   1.934       .  S
C559        C560   1.409   1_565  A
C559        C564   1.403       .  A
C559       Br566   1.932       .  S
C560        C561   1.408       .  A
C561        C562   1.403       .  A
C561       Br568   1.932       .  S
C562        C563   1.410       .  A
C563        C564   1.409   1_545  A
C564       Br565   1.932       .  S
C569        C574   1.405       .  A
C569       Br576   1.933       .  S
C570        C571   1.405       .  A
C571        C572   1.405       .  A
C571       Br578   1.931       .  S
C572        C573   1.413       .  A
C572       Br577   1.931       .  S
C574       Br575   1.932       .  S
C579        C580   1.405       .  A
C580        C581   1.405       .  A
C581        C582   1.404       .  A
C581       Br588   1.932       .  S
C582        C583   1.413       .  A
C582       Br587   1.932       .  S
C584       Br585   1.932       .  S
C589        C594   1.404       .  A
C589       Br596   1.930       .  S
C590        C591   1.408   1_554  A
C591        C592   1.402       .  A
C591       Br598   1.930       .  S
C592       Br597   1.930       .  S
C593        C594   1.407       .  A
C594       Br595   1.929       .  S
C599        C600   1.410       .  A
C599        C604   1.405       .  A
C599       Br606   1.932       .  S
C600        C601   1.414       .  A
C601        C602   1.404       .  A
C602        C603   1.405       .  A
C602       Br607   1.932       .  S
C603        C604   1.409       .  A
C604       Br605   1.929       .  S
C609        C610   1.411       .  A
C609        C614   1.407       .  A
C610        C611   1.410       .  A
C611        C612   1.401       .  A
C611       Br618   1.934       .  S
C612        C613   1.407       .  A
C612       Br617   1.933       .  S
C613        C614   1.408       .  A
C619        C624   1.404       .  A
C619       Br626   1.933   1_455  S
C620        C621   1.412       .  A
C621        C622   1.406       .  A
C621       Br628   1.932       .  S
C622        C623   1.408       .  A
C622       Br627   1.932       .  S
C624       Br625   1.932   1_455  S
C629        C634   1.403       .  A
C629       Br636   1.934   1_455  S
C630        C631   1.410       .  A
C631        C632   1.405       .  A
C631       Br638   1.931       .  S
C632        C633   1.409       .  A
C632       Br637   1.931       .  S
C634       Br635   1.934   1_455  S
C639        C640   1.407       .  A
C639        C644   1.404       .  A
C640        C641   1.408       .  A
C641        C642   1.401       .  A
C641       Br648   1.929       .  S
C642        C643   1.406       .  A
C642       Br647   1.931       .  S
C643        C644   1.408       .  A
