geometry optimzed in LAMMPS
_audit_creation_date              2020-11-30 
_audit_creation_method            'lammps2cif' 
_symmetry_space_group_name_H-M    'P1' 
_symmetry_Int_Tables_number       1 
_symmetry_cell_setting            triclinic 
loop_ 
_symmetry_equiv_pos_as_xyz 
  x,y,z 
_cell_length_a                    63.66428386801845 
_cell_length_b                    64.01077248699738 
_cell_length_c                    63.913828144691784 
_cell_angle_alpha                 89.8619703400966 
_cell_angle_beta                  90.08135657938236 
_cell_angle_gamma                 90.00562556199763 
loop_ 
_atom_site_label 
_atom_site_type_symbol 
_atom_site_fract_x 
_atom_site_fract_y 
_atom_site_fract_z 
_atom_site_charge 
Fe1        Fe  0.76083196  0.61235658  0.75173047     1.65780
Fe2        Fe  0.74132622  0.65217518  0.72481713     1.73250
Fe3        Fe  0.78112491  0.65924137  0.76030131     1.54420
O4          O  0.77695062  0.64177110  0.78862544    -0.81820
O5          O  0.76490373  0.66805287  0.70946993    -0.80130
O6          O  0.75128758  0.61923277  0.78090979    -0.84330
O7          O  0.79146559  0.61251156  0.76184695    -0.79180
O8          O  0.75751663  0.67936547  0.77027921    -0.80960
O9          O  0.74626132  0.62638901  0.70489780    -0.83700
C10         C  0.80627124  0.62077555  0.75180006     0.97060
C11         C  0.76238526  0.62895718  0.79409642     1.04500
O12         O  0.76075717  0.64174232  0.74555855    -1.12690
O13         O  0.71542036  0.63748353  0.73830166    -0.75120
O14         O  0.73021383  0.60673928  0.74392932    -0.78600
O15         O  0.80603226  0.64041571  0.74908177    -0.79290
C16         C  0.71414615  0.61817993  0.74259806     0.95970
O17         O  0.76961005  0.60625092  0.72172130    -0.77250
O18         O  0.73475278  0.67803045  0.74331885    -0.82440
C19         C  0.77963235  0.67976526  0.71604271     0.98590
C20         C  0.74115336  0.68575714  0.76060889     1.04510
O21         O  0.78644403  0.67892209  0.73476902    -0.78090
C22         C  0.75833200  0.61040843  0.70581218     1.02810
Fe23       Fe  0.75822269  0.41471607  0.73808687     1.65780
Fe24       Fe  0.77756910  0.37212744  0.76257583     1.73250
Fe25       Fe  0.73952660  0.36664475  0.72453777     1.54410
O26         O  0.71356026  0.38699276  0.72800617    -0.81820
O27         O  0.78996136  0.35233816  0.74045062    -0.80130
O28         O  0.72634756  0.41598792  0.74261395    -0.84330
O29         O  0.75525457  0.41347123  0.70597589    -0.79180
O30         O  0.72841321  0.35028530  0.75007938    -0.80960
O31         O  0.80194949  0.39293659  0.75710881    -0.83700
C32         C  0.75320475  0.39946082  0.69215231     0.97060
C33         C  0.71104357  0.40462071  0.73701585     1.04500
O34         O  0.75837762  0.38439915  0.74172477    -1.12690
O35         O  0.76703137  0.39080051  0.78675311    -0.75120
O36         O  0.76131823  0.42063116  0.76965693    -0.78600
O37         O  0.74868479  0.38064827  0.69655853    -0.79290
C38         C  0.76315927  0.41022472  0.78647133     0.95970
O39         O  0.79022917  0.41600052  0.73372791    -0.77250
O40         O  0.75602904  0.34997231  0.77162580    -0.82440
C41         C  0.78160516  0.34101777  0.72639352     0.98590
C42         C  0.73778366  0.34397643  0.76640951     1.04510
O43         O  0.76283119  0.34379658  0.71984993    -0.78090
C44         C  0.80478774  0.40831276  0.74488715     1.02810
Fe45       Fe  0.74645226  0.52268933  0.83516580     1.65780
Fe46       Fe  0.77511034  0.50693781  0.87620161     1.73250
Fe47       Fe  0.73208708  0.53699882  0.88390599     1.54420
O48         O  0.73911049  0.56465024  0.86877706    -0.81820
O49         O  0.75862938  0.49813243  0.90265582    -0.80130
O50         O  0.73892361  0.55426248  0.83543202    -0.84330
O51         O  0.71618094  0.51314137  0.83903932    -0.79180
O52         O  0.75548155  0.54447031  0.90493639    -0.80960
O53         O  0.76657725  0.47915601  0.86207670    -0.83700
C54         C  0.70172738  0.51977611  0.85079654     0.97060
C55         C  0.74097448  0.56831169  0.84935535     1.04500
O56         O  0.75105768  0.52189617  0.86502486    -1.12690
O57         O  0.79502148  0.51339945  0.85154388    -0.75120
O58         O  0.77659092  0.53182251  0.82858778    -0.78600
O59         O  0.70518668  0.53189796  0.86607312    -0.79290
C60         C  0.79379220  0.52423094  0.83497839     0.95970
O61         O  0.75388536  0.49140212  0.83178469    -0.77250
O62         O  0.78518072  0.53391521  0.89010741    -0.82440
C63         C  0.73957168  0.49825810  0.90862430     0.98590
C64         C  0.77532278  0.54465183  0.90352415     1.04510
O65         O  0.72561300  0.50985389  0.90034049    -0.78090
C66         C  0.75996546  0.47645595  0.84349476     1.02810
Fe67       Fe  0.75308571  0.86612823  0.51028154     1.65780
Fe68       Fe  0.77751438  0.90334097  0.48346452     1.73250
Fe69       Fe  0.74073258  0.91622117  0.51973654     1.54420
O70         O  0.71323826  0.89745963  0.51798249    -0.81820
O71         O  0.79193053  0.92259942  0.50425929    -0.80130
O72         O  0.72293139  0.86862464  0.50065670    -0.84330
O73         O  0.74395415  0.87047663  0.54087973    -0.79180
O74         O  0.73080158  0.93149875  0.49249538    -0.80960
O75         O  0.79846716  0.88025614  0.49286233    -0.83700
C76         C  0.75095732  0.88409812  0.55326568     0.97060
C77         C  0.70898473  0.88106729  0.50726613     1.04500
O78         O  0.75686387  0.89553162  0.50414319    -1.12690
O79         O  0.76457014  0.88435983  0.46088074    -0.75120
O80         O  0.76078567  0.85618796  0.48065813    -0.78600
O81         O  0.75162344  0.90318895  0.54793218    -0.79290
C82         C  0.76121665  0.86498300  0.46289040     0.95970
O83         O  0.78374018  0.86353715  0.51970233    -0.77250
O84         O  0.75895321  0.92718639  0.47199181    -0.82440
C85         C  0.78488477  0.93617424  0.51678495     0.98590
C86         C  0.74116088  0.93536385  0.47583528     1.04510
O87         O  0.76572492  0.93702375  0.52234409    -0.78090
C88         C  0.79958739  0.86780883  0.50841024     1.02810
Fe89       Fe  0.74173960  0.25083665  0.89566098     1.65780
Fe90       Fe  0.76812801  0.27061458  0.85483909     1.73250
Fe91       Fe  0.72641380  0.23762521  0.84632253     1.54410
O92         O  0.72761517  0.21017187  0.86452013    -0.81820
O93         O  0.74721118  0.28672192  0.83678659    -0.80130
O94         O  0.74352823  0.21937427  0.89434265    -0.84330
O95         O  0.70965697  0.25043525  0.89473132    -0.79180
O96         O  0.75102883  0.22535592  0.82877608    -0.80960
O97         O  0.76469910  0.29375060  0.87742623    -0.83700
C98         C  0.69574271  0.25193502  0.88072653     0.97060
C99         C  0.73653428  0.20575906  0.88187310     1.04500
O100        O  0.74539919  0.25289007  0.86544688    -1.12690
O101        O  0.79081944  0.25538856  0.87207258    -0.75120
O102        O  0.77334792  0.25045766  0.90173217    -0.78600
O103        O  0.69953420  0.24884350  0.86145790    -0.79290
C104        C  0.79005790  0.24976576  0.89104959     0.95970
O105        O  0.73973784  0.28253245  0.89890832    -0.77250
O106        O  0.77516015  0.25052101  0.83088359    -0.82440
C107        C  0.73188542  0.28121631  0.82535427     0.98590
C108        C  0.76848717  0.23340773  0.82351548     1.04510
O109        O  0.72373675  0.26303227  0.82589159    -0.78090
C110        C  0.75155812  0.29686927  0.89201689     1.02810
Fe111      Fe  0.73675964  0.92460382  0.23439206     1.65780
Fe112      Fe  0.76648059  0.88609086  0.25420498     1.73250
Fe113      Fe  0.72359025  0.87419706  0.22471112     1.54410
O114        O  0.69587381  0.89140633  0.23021916    -0.81820
O115        O  0.77743246  0.87004166  0.22879995    -0.80130
O116        O  0.70659682  0.92131971  0.24439511    -0.84330
O117        O  0.72835662  0.92167174  0.20331178    -0.79180
O118        O  0.71857566  0.85862706  0.25263488    -0.80960
O119        O  0.78573225  0.91104578  0.24575481    -0.83700
C120        C  0.72981202  0.90667895  0.19044220     0.97060
C121        C  0.69228046  0.90840886  0.23993763     1.04500
O122        O  0.74208107  0.89494915  0.23799683    -1.12690
O123        O  0.75673122  0.90211267  0.28034186    -0.75120
O124        O  0.74428714  0.93096606  0.26498123    -0.78600
O125        O  0.72876290  0.88765676  0.19583759    -0.79290
C126        C  0.74968946  0.92064201  0.28111123     0.95970
O127        O  0.76689463  0.93096791  0.22449825    -0.77250
O128        O  0.75112170  0.85996601  0.26570958    -0.82440
C129        C  0.76821151  0.85631213  0.21781736     0.98590
C130        C  0.73253787  0.85270369  0.26557179     1.04510
O131        O  0.74834001  0.85423763  0.21747276    -0.78090
C132        C  0.78418061  0.92641846  0.23325324     1.02810
Fe133      Fe  0.75868229  0.00095148  0.15034616     1.65780
Fe134      Fe  0.73146533  0.02601776  0.11386813     1.73250
Fe135      Fe  0.76943441  0.99212184  0.09956352     1.54410
O136        O  0.79758908  0.99400432  0.11727046    -0.81820
O137        O  0.71694843  0.00348233  0.09642182    -0.80130
O138        O  0.78843279  0.01121206  0.14619752    -0.84330
O139        O  0.76765764  0.97043646  0.14497252    -0.79180
O140        O  0.77826566  0.01971959  0.08551114    -0.80960
O141        O  0.71239779  0.01755662  0.13861228    -0.83700
C142        C  0.76085014  0.95827896  0.13093698     0.97060
C143        C  0.80195927  0.00591145  0.13275048     1.04500
O144        O  0.75332751  0.00659655  0.12110195    -1.12690
O145        O  0.74516158  0.04954958  0.13130578    -0.75120
O146        O  0.75146186  0.03083402  0.15996671    -0.78600
O147        O  0.75971168  0.96382273  0.11195103    -0.79290
C148        C  0.75025364  0.04823577  0.15048009     0.95970
O149        O  0.72815504  0.99136714  0.15531128    -0.77250
O150        O  0.74759136  0.03658052  0.08799299    -0.82440
C151        C  0.72461295  0.99499667  0.08025078     0.98590
C152        C  0.76559101  0.03396310  0.07985699     1.04510
O153        O  0.74399361  0.99029117  0.07872022    -0.78090
C154        C  0.71207323  0.00262577  0.15175283     1.02810
Fe155      Fe  0.76188254  0.11699775  0.25682672     1.65780
Fe156      Fe  0.73695932  0.15387770  0.22905901     1.73250
Fe157      Fe  0.77091839  0.16807238  0.26751110     1.54420
O158        O  0.76845652  0.15132406  0.29615737    -0.81820
O159        O  0.76012345  0.17069559  0.21420621    -0.80130
O160        O  0.75468973  0.12047535  0.28748125    -0.84330
O161        O  0.79355426  0.12108202  0.26228984    -0.79180
O162        O  0.74309411  0.18343858  0.27503851    -0.80960
O163        O  0.74377384  0.12836266  0.21018927    -0.83700
C164        C  0.80592819  0.13625953  0.25910692     0.97060
C165        C  0.75966522  0.13399067  0.30095644     1.04500
O166        O  0.75642590  0.14639449  0.25136841    -1.12690
O167        O  0.71277634  0.13721484  0.24291746    -0.75120
O168        O  0.73088933  0.10887215  0.25241897    -0.78600
O169        O  0.79994192  0.15518206  0.25970445    -0.79290
C170        C  0.71365454  0.11845669  0.24950362     0.95970
O171        O  0.76919852  0.11097591  0.22617805    -0.77250
O172        O  0.72716407  0.18070213  0.24410111    -0.82440
C173        C  0.77076514  0.18572868  0.22173900     0.98590
C174        C  0.72966207  0.18966509  0.26164447     1.04510
O175        O  0.77433961  0.18759402  0.24131316    -0.78090
C176        C  0.75760376  0.11407896  0.21037499     1.02810
Fe177      Fe  0.75518413  0.27658015  0.08955661     1.65780
Fe178      Fe  0.73122732  0.25608445  0.13139456     1.73250
Fe179      Fe  0.77135281  0.29083799  0.13789116     1.54420
O180        O  0.79786287  0.28623053  0.11852454    -0.81820
O181        O  0.71890042  0.28053540  0.14791516    -0.80130
O182        O  0.78605648  0.26865294  0.09076575    -0.84330
O183        O  0.76199097  0.30790128  0.08962948    -0.79180
O184        O  0.78042277  0.26455190  0.15476125    -0.80960
O185        O  0.70909461  0.26202571  0.10807543    -0.83700
C186        C  0.76084383  0.32208955  0.10331365     0.97060
C187        C  0.80089051  0.27538335  0.10204365     1.04500
O188        O  0.75275162  0.27440948  0.11974207    -1.12690
O189        O  0.74259903  0.23041854  0.11554072    -0.75120
O190        O  0.74911308  0.24547295  0.08479983    -0.78600
O191        O  0.76276171  0.31846690  0.12277237    -0.79290
C192        C  0.74772914  0.22946480  0.09641585     0.95970
O193        O  0.72418573  0.28458499  0.08639024    -0.77250
O194        O  0.74995224  0.24727204  0.15624565    -0.82440
C195        C  0.72786655  0.29341774  0.16007629     0.98590
C196        C  0.76884144  0.25003929  0.16197213     1.04510
O197        O  0.74755283  0.29702996  0.15957395    -0.78090
C198        C  0.70811326  0.27497159  0.09300878     1.02810
Fe199      Fe  0.75968059  0.16835379  0.98992817     1.65780
Fe200      Fe  0.72994454  0.13105249  0.01196886     1.73250
Fe201      Fe  0.76721541  0.11788097  0.97543744     1.54420
O202        O  0.76629902  0.13624236  0.94832922    -0.81820
O203        O  0.74925111  0.10948819  0.02601724    -0.80130
O204        O  0.75381559  0.16715906  0.95861082    -0.84330
O205        O  0.79126987  0.16296888  0.98630650    -0.79180
O206        O  0.73978725  0.10427295  0.96505276    -0.80960
O207        O  0.73874639  0.15240068  0.03463891    -0.83700
C208        C  0.80313271  0.14715658  0.98735145     0.97060
C209        C  0.75762282  0.15376974  0.94456795     1.04500
O210        O  0.75227685  0.13893990  0.99245865    -1.12690
O211        O  0.70846808  0.15193467  0.99955892    -0.75120
O212        O  0.72941964  0.17889361  0.99310985    -0.78600
O213        O  0.79650447  0.12868354  0.98480264    -0.79290
C214        C  0.71130113  0.17088906  0.99454495     0.95970
O215        O  0.76505289  0.17112766  0.02149811    -0.77250
O216        O  0.71795200  0.10904911  0.99192438    -0.82440
C217        C  0.76210368  0.09631609  0.01858023     0.98590
C218        C  0.72248698  0.10114773  0.97432381     1.04510
O219        O  0.76890960  0.09680885  0.99992560    -0.78090
C220        C  0.75318158  0.16594359  0.03659962     1.02810
Fe221      Fe  0.74344164  0.03016304  0.34076927     1.65780
Fe222      Fe  0.77149370  0.00634022  0.37926544     1.73250
Fe223      Fe  0.73160501  0.04067902  0.39211616     1.54420
O224        O  0.73592425  0.06968403  0.37706627    -0.81820
O225        O  0.75329702  0.99295151  0.40205703    -0.80130
O226        O  0.74291210  0.06187325  0.34377256    -0.84330
O227        O  0.71155815  0.02762092  0.34357368    -0.79180
O228        O  0.75763627  0.04813837  0.41072790    -0.80960
O229        O  0.76200082  0.98276311  0.35956263    -0.83700
C230        C  0.69800952  0.02962769  0.35783937     0.97060
C231        C  0.74069138  0.07493846  0.35840547     1.04500
O232        O  0.74876280  0.02567689  0.37080357    -1.12690
O233        O  0.79320888  0.01690345  0.35768542    -0.75120
O234        O  0.77457505  0.03342072  0.33341422    -0.78600
O235        O  0.70286800  0.03473036  0.37652342    -0.79290
C236        C  0.79191994  0.02727035  0.34085021     0.95970
O237        O  0.74374829  0.99879426  0.33446315    -0.77250
O238        O  0.78364977  0.02751348  0.39975119    -0.82440
C239        C  0.73680998  0.99687847  0.41242341     0.98590
C240        C  0.77664526  0.04197794  0.41126428     1.04510
O241        O  0.72633013  0.01370319  0.41009276    -0.78090
C242        C  0.75136591  0.98248017  0.34280992     1.02810
Fe243      Fe  0.74335063  0.36053603  0.99687255     1.65780
Fe244      Fe  0.77275429  0.39796871  0.97482756     1.73250
Fe245      Fe  0.73340673  0.41081050  0.00831353     1.54410
O246        O  0.70486306  0.39434306  0.00557166    -0.81820
O247        O  0.78677489  0.41425324  0.99872578    -0.80130
O248        O  0.71311760  0.36565248  0.98779900    -0.84330
O249        O  0.73611462  0.36352821  0.02831125    -0.79180
O250        O  0.72585528  0.42631153  0.98094876    -0.80960
O251        O  0.79144133  0.37227170  0.98205182    -0.83700
C252        C  0.73985141  0.37774030  0.04161909     0.97060
C253        C  0.69977473  0.37872654  0.99430276     1.04500
O254        O  0.74978375  0.38983492  0.99317995    -1.12690
O255        O  0.76041143  0.38197786  0.94952178    -0.75120
O256        O  0.74947959  0.35333996  0.96617800    -0.78600
O257        O  0.74106808  0.39690574  0.03666271    -0.79290
C258        C  0.75387957  0.36322897  0.94953781     0.95970
O259        O  0.77367355  0.35356291  0.00538046    -0.77250
O260        O  0.75714671  0.42471382  0.96516042    -0.82440
C261        C  0.77879140  0.42917021  0.00908012     0.98590
C262        C  0.73903268  0.43277547  0.96751148     1.04510
O263        O  0.75911968  0.43056638  0.01235622    -0.78090
C264        C  0.79025290  0.35718349  0.99496243     1.02810
Fe265      Fe  0.77239407  0.67140559  0.49209097     1.65780
Fe266      Fe  0.74781411  0.63089567  0.51501083     1.73250
Fe267      Fe  0.78391223  0.62222344  0.47637777     1.54420
O268        O  0.78157956  0.64171463  0.44969556    -0.81820
O269        O  0.77027600  0.61193185  0.52829868    -0.80130
O270        O  0.76593468  0.67078278  0.46079527    -0.84330
O271        O  0.80426063  0.66923294  0.48743893    -0.79180
O272        O  0.75655051  0.60718532  0.46631950    -0.80960
O273        O  0.75439740  0.65349018  0.53735094    -0.83700
C274        C  0.81779277  0.65475037  0.48772882     0.97060
C275        C  0.77180311  0.65880171  0.44622049     1.04500
O276        O  0.76806876  0.64139595  0.49445964    -1.12690
O277        O  0.72375446  0.64888854  0.50286520    -0.75120
O278        O  0.74124685  0.67826681  0.49617879    -0.78600
O279        O  0.81283940  0.63554536  0.48554085    -0.79290
C280        C  0.72432522  0.66794897  0.49746697     0.95970
O281        O  0.77862322  0.67425188  0.52342985    -0.77250
O282        O  0.73774010  0.60708016  0.49580107    -0.82440
C283        C  0.78135682  0.59823470  0.51916209     0.98590
C284        C  0.74090142  0.60109992  0.47715920     1.04510
O285        O  0.78689325  0.59971499  0.50004493    -0.78090
C286        C  0.76765480  0.66822744  0.53882989     1.02810
Fe287      Fe  0.76530669  0.49686618  0.64343465     1.65780
Fe288      Fe  0.73832800  0.52251388  0.60703542     1.73250
Fe289      Fe  0.77455931  0.48579012  0.59334908     1.54420
O290        O  0.80284078  0.48763591  0.61075685    -0.81820
O291        O  0.72318735  0.50174768  0.58798881    -0.80130
O292        O  0.79507450  0.50727435  0.63863391    -0.84330
O293        O  0.77542701  0.46670897  0.63946912    -0.79180
O294        O  0.78362247  0.51276619  0.57747315    -0.80960
O295        O  0.71870173  0.51269168  0.63101503    -0.83700
C296        C  0.76900922  0.45310335  0.62677426     0.97060
C297        C  0.80826941  0.49909764  0.62625426     1.04500
O298        O  0.75941406  0.50195724  0.61425296    -1.12690
O299        O  0.75130674  0.54578083  0.62572538    -0.75120
O300        O  0.75688277  0.52595067  0.65338618    -0.78600
O301        O  0.76530675  0.45769757  0.60777321    -0.79290
C302        C  0.75447990  0.54375803  0.64519702     0.95970
O303        O  0.73501517  0.48684256  0.64810621    -0.77250
O304        O  0.75582753  0.53376919  0.58231777    -0.82440
C305        C  0.72970812  0.48917848  0.57414956     0.98590
C306        C  0.77314909  0.52929464  0.57350893     1.04510
O307        O  0.74866384  0.48286468  0.57337593    -0.78090
C308        C  0.71868771  0.49767548  0.64418297     1.02810
Fe309      Fe  0.77560674  0.77989663  0.59182830     1.65780
Fe310      Fe  0.74794499  0.76069447  0.63225807     1.73250
Fe311      Fe  0.79040101  0.79130516  0.64135488     1.54420
O312        O  0.81756257  0.78711531  0.62251748    -0.81820
O313        O  0.73702012  0.78580038  0.64872990    -0.80130
O314        O  0.80610617  0.77049141  0.59422493    -0.84330
O315        O  0.78348051  0.81119335  0.59363530    -0.79180
O316        O  0.79749925  0.76288833  0.65591384    -0.80960
O317        O  0.72748858  0.76853739  0.60845517    -0.83700
C318        C  0.78181509  0.82473655  0.60803068     0.97060
C319        C  0.82087484  0.77637883  0.60602170     1.04500
O320        O  0.77140622  0.77720049  0.62177971    -1.12690
O321        O  0.75738277  0.73448193  0.61616946    -0.75120
O322        O  0.76868633  0.74898353  0.58644962    -0.78600
O323        O  0.78300669  0.82006705  0.62742233    -0.79290
C324        C  0.76407355  0.73315994  0.59754034     0.95970
O325        O  0.74500255  0.78895961  0.58652247    -0.77250
O326        O  0.76495197  0.74992699  0.65748255    -0.82440
C327        C  0.74657497  0.79574620  0.66297287     0.98590
C328        C  0.78436034  0.74911191  0.66198886     1.04510
O329        O  0.76657047  0.79708583  0.66349061    -0.78090
C330        C  0.72807896  0.78047106  0.59262880     1.02810
Fe331      Fe  0.75544048  0.75752206  0.39653166     1.65780
Fe332      Fe  0.77699870  0.78456570  0.35766931     1.73250
Fe333      Fe  0.74144666  0.74632955  0.34732437     1.54420
O334        O  0.74472036  0.71842820  0.36579121    -0.81820
O335        O  0.75286143  0.79888612  0.34222657    -0.80130
O336        O  0.76504821  0.72774558  0.39268731    -0.84330
O337        O  0.72411268  0.74889307  0.39515255    -0.79180
O338        O  0.76751294  0.73789943  0.32975552    -0.80960
O339        O  0.77103718  0.80391978  0.38345202    -0.83700
C340        C  0.71021881  0.75420904  0.38200013     0.97060
C341        C  0.75620097  0.71392008  0.38175309     1.04500
O342        O  0.75830540  0.76253068  0.36690687    -1.12690
O343        O  0.80236580  0.77148533  0.37273196    -0.75120
O344        O  0.78619299  0.76486725  0.40284370    -0.78600
O345        O  0.71418565  0.75549335  0.36262000    -0.79290
C346        C  0.80271664  0.76676432  0.39197235     0.95970
O347        O  0.74610711  0.78753846  0.40130391    -0.77250
O348        O  0.78534694  0.76804305  0.33104428    -0.82440
C349        C  0.74052263  0.79144855  0.32854791     0.98590
C350        C  0.78178783  0.75016738  0.32304455     1.04510
O351        O  0.73663401  0.77191567  0.32712570    -0.78090
C352        C  0.75731420  0.80352485  0.39796521     1.02810
Fe353      Fe  0.50620579  0.79291592  0.64819845     1.65780
Fe354      Fe  0.52809185  0.76354562  0.61063800     1.73250
Fe355      Fe  0.49404484  0.80296889  0.59711826     1.54420
O356        O  0.46610939  0.80244328  0.61425332    -0.81820
O357        O  0.54374810  0.78279232  0.59011225    -0.80130
O358        O  0.47458726  0.78909423  0.64553979    -0.84330
O359        O  0.50425631  0.82454148  0.64387066    -0.79180
O360        O  0.48299867  0.77668619  0.58162975    -0.80960
O361        O  0.55042800  0.77054870  0.63301776    -0.83700
C362        C  0.50657039  0.83686528  0.62859314     0.97060
C363        C  0.46124794  0.79411206  0.63169006     1.04500
O364        O  0.50939973  0.78644866  0.61850980    -1.12690
O365        O  0.51428163  0.74208047  0.63066685    -0.75120
O366        O  0.50761238  0.76232824  0.65796467    -0.78600
O367        O  0.50432568  0.83118544  0.60973162    -0.79290
C368        C  0.50914500  0.74445269  0.64968539     0.95970
O369        O  0.53807333  0.79657334  0.65254604    -0.77250
O370        O  0.50813580  0.75313798  0.58768115    -0.82440
C371        C  0.53797460  0.79698440  0.57741410     0.98590
C372        C  0.49122709  0.75883898  0.57885981     1.04510
O373        O  0.51962210  0.80474286  0.57728090    -0.78090
C374        C  0.55267663  0.78418797  0.64722812     1.02810
Fe375      Fe  0.66655824  0.77698444  0.48396815     1.65780
Fe376      Fe  0.62647938  0.75533417  0.50931699     1.73250
Fe377      Fe  0.61742235  0.79149161  0.47114638     1.54420
O378        O  0.63723862  0.81801446  0.47312139    -0.81820
O379        O  0.60682278  0.74103404  0.48807871    -0.80130
O380        O  0.66481447  0.80752998  0.49213742    -0.84330
O381        O  0.66454797  0.78450510  0.45277275    -0.79180
O382        O  0.60195887  0.80296067  0.49718765    -0.80960
O383        O  0.64927053  0.73305362  0.50259695    -0.83700
C384        C  0.65069005  0.78026059  0.43930475     0.97060
C385        C  0.65300611  0.82177939  0.48498741     1.04500
O386        O  0.63652170  0.77455157  0.48812456    -1.12690
O387        O  0.64495955  0.76890278  0.53236618    -0.75120
O388        O  0.67450510  0.77056236  0.51432644    -0.78600
O389        O  0.63125410  0.78027619  0.44372277    -0.79290
C390        C  0.66451151  0.77238366  0.53126830     0.95970
O391        O  0.66867081  0.74588340  0.47655524    -0.77250
O392        O  0.60312153  0.77524670  0.51854467    -0.82440
C393        C  0.59394271  0.74874649  0.47491944     0.98590
C394        C  0.59676032  0.79344534  0.51386185     1.04510
O395        O  0.59514566  0.76756163  0.46840368    -0.78090
C396        C  0.66320988  0.73089667  0.48847390     1.02810
Fe397      Fe  0.51001593  0.67745261  0.75935359     1.65780
Fe398      Fe  0.53024729  0.63973414  0.73044337     1.73250
Fe399      Fe  0.49272461  0.62904916  0.76719137     1.54420
O400        O  0.49691898  0.64581689  0.79573061    -0.81820
O401        O  0.50688883  0.62328752  0.71545722    -0.80130
O402        O  0.52130342  0.66969657  0.78795042    -0.84330
O403        O  0.48004064  0.67490914  0.77081363    -0.79180
O404        O  0.51777868  0.60984529  0.77541347    -0.80960
O405        O  0.52261249  0.66567458  0.71169825    -0.83700
C406        C  0.46525709  0.66612453  0.76117073     0.97060
C407        C  0.51065484  0.65947286  0.80118006     1.04500
O408        O  0.51126895  0.64830803  0.75218039    -1.12690
O409        O  0.55583532  0.65518824  0.74360007    -0.75120
O410        O  0.53980903  0.68499919  0.75040030    -0.78600
O411        O  0.46639605  0.64667633  0.75773577    -0.79290
C412        C  0.55633653  0.67432431  0.74860145     0.95970
O413        O  0.49952102  0.68478152  0.72981222    -0.77250
O414        O  0.53896538  0.61352778  0.74749081    -0.82440
C415        C  0.49301844  0.61069047  0.72221460     0.98590
C416        C  0.53375269  0.60456714  0.76458181     1.04510
O417        O  0.48728791  0.61021670  0.74126990    -0.78090
C418        C  0.50926221  0.68059658  0.71289670     1.02810
Fe419      Fe  0.65809744  0.50790993  0.75193764     1.65780
Fe420      Fe  0.61851657  0.52744760  0.72453776     1.73250
Fe421      Fe  0.60849896  0.49147431  0.76289212     1.54410
O422        O  0.62817804  0.46460904  0.75976556    -0.81820
O423        O  0.60055481  0.54277204  0.74593088    -0.80130
O424        O  0.65878047  0.47656075  0.74699964    -0.84330
O425        O  0.65536114  0.50361314  0.78333993    -0.79180
O426        O  0.59172065  0.48137535  0.73705967    -0.80960
O427        O  0.64198095  0.54986808  0.72911017    -0.83700
C428        C  0.64071468  0.50213166  0.79651637     0.97060
C429        C  0.64665739  0.46173260  0.75216202     1.04500
O430        O  0.62812579  0.50866238  0.74657604    -1.12690
O431        O  0.63619721  0.51181099  0.70260385    -0.75120
O432        O  0.66578993  0.51172627  0.72100011    -0.78600
O433        O  0.62172580  0.49939049  0.79142894    -0.79290
C434        C  0.65570568  0.50821416  0.70426662     0.95970
O435        O  0.65898315  0.53945770  0.75742784    -0.77250
O436        O  0.59342405  0.50914233  0.71619565    -0.82440
C437        C  0.58848825  0.53634701  0.76043862     0.98590
C438        C  0.58561594  0.49169191  0.72126599     1.04510
O439        O  0.58802503  0.51731165  0.76684800    -0.78090
C440        C  0.65440072  0.55353262  0.74424508     1.02810
Fe441      Fe  0.61482611  0.78556548  0.75640813     1.65780
Fe442      Fe  0.65411466  0.76212120  0.73064645     1.73250
Fe443      Fe  0.66535802  0.79728949  0.76950763     1.54420
O444        O  0.64799271  0.82554730  0.76608536    -0.81820
O445        O  0.67296508  0.74695845  0.75147323    -0.80130
O446        O  0.61770399  0.81663468  0.75056385    -0.84330
O447        O  0.61661538  0.79014334  0.78811286    -0.79180
O448        O  0.68330831  0.80679690  0.74395680    -0.80960
O449        O  0.63085569  0.74035652  0.73742387    -0.83700
C450        C  0.63074993  0.78786326  0.80179169     0.97060
C451        C  0.63096074  0.83019015  0.75636656     1.04500
O452        O  0.64498560  0.78177370  0.75215811    -1.12690
O453        O  0.63608531  0.77550018  0.70751971    -0.75120
O454        O  0.60697604  0.78187440  0.72545887    -0.78600
O455        O  0.65018650  0.78857147  0.79733744    -0.79290
C456        C  0.61678966  0.78000311  0.70840225     0.95970
O457        O  0.61062720  0.75424461  0.76212496    -0.77250
O458        O  0.67836928  0.78098765  0.72104037    -0.82440
C459        C  0.68506773  0.75261528  0.76614933     0.98590
C460        C  0.68739804  0.79766770  0.72679467     1.04510
O461        O  0.68504606  0.77107779  0.77373089    -0.78090
C462        C  0.61647174  0.73880437  0.75112950     1.02810
Fe463      Fe  0.41699223  0.76797789  0.72963615     1.65780
Fe464      Fe  0.37724154  0.79128731  0.75279963     1.73250
Fe465      Fe  0.36909404  0.75232221  0.71703480     1.54420
O466        O  0.38842119  0.75709439  0.69018548    -0.81820
O467        O  0.35615242  0.77051329  0.76595190    -0.80130
O468        O  0.41302676  0.78000273  0.70063586    -0.84330
O469        O  0.41389005  0.73916053  0.71651508    -0.79180
O470        O  0.35153333  0.77735278  0.70623833    -0.80960
O471        O  0.39960253  0.78189341  0.77495205    -0.83700
C472        C  0.40517311  0.72467048  0.72629943     0.97060
C473        C  0.40225589  0.77126962  0.68635709     1.04500
O474        O  0.38721055  0.77080653  0.73335587    -1.12690
O475        O  0.39688851  0.81505886  0.74161479    -0.75120
O476        O  0.42585572  0.79642775  0.74084659    -0.78600
O477        O  0.38545847  0.72571802  0.72861414    -0.79290
C478        C  0.41673693  0.81383105  0.74156745     0.95970
O479        O  0.41915415  0.75696796  0.75977942    -0.77250
O480        O  0.35520036  0.80141100  0.73158516    -0.82440
C481        C  0.34485007  0.75561314  0.75910992     0.98590
C482        C  0.34764956  0.79515575  0.71422033     1.04510
O483        O  0.34751248  0.74757593  0.74110016    -0.78090
C484        C  0.41379334  0.76770238  0.77576252     1.02810
Fe485      Fe  0.52560062  0.76813197  0.83803431     1.65780
Fe486      Fe  0.49836540  0.79286222  0.87580075     1.73250
Fe487      Fe  0.53451049  0.75524716  0.88905691     1.54410
O488        O  0.53296070  0.72767905  0.87169660    -0.81820
O489        O  0.51869332  0.80631460  0.89662307    -0.80130
O490        O  0.52018451  0.73681496  0.84049208    -0.84330
O491        O  0.55731448  0.76489430  0.84242756    -0.79180
O492        O  0.50638322  0.74598944  0.90337722    -0.80960
O493        O  0.50783570  0.81486666  0.85418298    -0.83700
C494        C  0.56988498  0.76582309  0.85772896     0.97060
C495        C  0.52472921  0.72320227  0.85414405     1.04500
O496        O  0.51950665  0.77208704  0.86772647    -1.12690
O497        O  0.47573954  0.78122544  0.85581104    -0.75120
O498        O  0.49489494  0.77053399  0.82889973    -0.78600
O499        O  0.56394516  0.76365525  0.87665277    -0.79290
C500        C  0.47735115  0.77381444  0.83753311     0.95970
O501        O  0.53094740  0.79946643  0.83322852    -0.77250
O502        O  0.48575086  0.77374756  0.89817657    -0.82440
C503        C  0.53146837  0.79883865  0.90990747     0.98590
C504        C  0.48918631  0.75585619  0.90596137     1.04510
O505        O  0.53755081  0.77995865  0.90971131    -0.78090
C506        C  0.52124453  0.81556571  0.83956881     1.02810
Fe507      Fe  0.86154237  0.75864395  0.50358579     1.65780
Fe508      Fe  0.89911885  0.78741567  0.47992827     1.73250
Fe509      Fe  0.91335511  0.74685979  0.51275972     1.54410
O510        O  0.89870324  0.75072956  0.54243871    -0.81820
O511        O  0.91867315  0.76837503  0.46350677    -0.80130
O512        O  0.86537269  0.75935258  0.53510266    -0.84330
O513        O  0.86417738  0.72705836  0.50258487    -0.79180
O514        O  0.93293175  0.77223426  0.52016759    -0.80960
O515        O  0.87643711  0.78076658  0.45796499    -0.83700
C516        C  0.87850062  0.71354133  0.50348353     0.97060
C517        C  0.88014519  0.75622423  0.54797983     1.04500
O518        O  0.89150769  0.76424583  0.49885583    -1.12690
O519        O  0.88042554  0.80897520  0.49475908    -0.75120
O520        O  0.85372066  0.78952209  0.50556061    -0.78600
O521        O  0.89762865  0.71829409  0.50696745    -0.79290
C522        C  0.86255970  0.80703663  0.50315858     0.95970
O523        O  0.85522953  0.75725754  0.47229155    -0.77250
O524        O  0.92292719  0.79749971  0.49839707    -0.82440
C525        C  0.92955408  0.75210334  0.46676703     0.98590
C526        C  0.93466551  0.79061699  0.51274309     1.04510
O527        O  0.92977544  0.74238592  0.48432331    -0.78090
C528        C  0.86165825  0.76761854  0.45669436     1.02810
Fe529      Fe  0.90088447  0.76437246  0.21753434     1.65780
Fe530      Fe  0.86252168  0.79291395  0.24032794     1.73250
Fe531      Fe  0.84958756  0.75371050  0.20574611     1.54420
O532        O  0.86412860  0.76046035  0.17694665    -0.81820
O533        O  0.84029731  0.77408822  0.25394211    -0.80130
O534        O  0.89813004  0.76164440  0.18558723    -0.84330
O535        O  0.89667004  0.73324482  0.22260035    -0.79180
O536        O  0.82961871  0.77867080  0.20014861    -0.80960
O537        O  0.88228965  0.78431556  0.26431163    -0.83700
C538        C  0.88270399  0.72016882  0.21759271     0.97060
C539        C  0.88348874  0.76241480  0.17214198     1.04500
O540        O  0.87094745  0.77034220  0.22123095    -1.12690
O541        O  0.88413878  0.81402479  0.22899941    -0.75120
O542        O  0.90831420  0.79513980  0.21249789    -0.78600
O543        O  0.86546618  0.72535299  0.20906504    -0.79290
C544        C  0.90087634  0.81252000  0.21839626     0.95970
O545        O  0.90780093  0.76646669  0.24889524    -0.77250
O546        O  0.84185389  0.80496323  0.21926095    -0.82440
C547        C  0.83166010  0.75651302  0.25064452     0.98590
C548        C  0.82931417  0.79758976  0.20586852     1.04510
O549        O  0.83361284  0.74644475  0.23352486    -0.78090
C550        C  0.89941409  0.77436305  0.26499913     1.02810
Fe551      Fe  0.23688054  0.76271188  0.87782496     1.65780
Fe552      Fe  0.26012857  0.78921373  0.83932244     1.73250
Fe553      Fe  0.22863840  0.74815924  0.82795205     1.54420
O554        O  0.23046455  0.72139713  0.84793473    -0.81820
O555        O  0.23648556  0.80089901  0.82134130    -0.80130
O556        O  0.24708447  0.73260099  0.87646850    -0.84330
O557        O  0.20596128  0.75386803  0.87368873    -0.79180
O558        O  0.25792033  0.74017500  0.81542112    -0.80960
O559        O  0.25099926  0.80938897  0.86274524    -0.83700
C560        C  0.19303569  0.75609895  0.85872640     0.97060
C561        C  0.24029643  0.71793040  0.86511982     1.04500
O562        O  0.24206566  0.76650789  0.84831971    -1.12690
O563        O  0.28485400  0.77882669  0.85717331    -0.75120
O564        O  0.26714416  0.77076057  0.88613112    -0.78600
O565        O  0.19884073  0.75625115  0.83961846    -0.79290
C566        C  0.28422526  0.77369224  0.87629999     0.95970
O567        O  0.22654622  0.79284149  0.88102092    -0.77250
O568        O  0.27218295  0.77210654  0.81484091    -0.82440
C569        C  0.22804195  0.79190747  0.80586891     0.98590
C570        C  0.27241511  0.75287362  0.81000021     1.04510
O571        O  0.22569297  0.77208474  0.80518233    -0.78090
C572        C  0.23677360  0.80922953  0.87661260     1.02810
Fe573      Fe  0.25399465  0.77883229  0.07320553     1.65780
Fe574      Fe  0.22597161  0.76057337  0.11335714     1.73250
Fe575      Fe  0.26709966  0.79305311  0.12195784     1.54410
O576        O  0.29430830  0.78812281  0.10348270    -0.81820
O577        O  0.21408375  0.78610167  0.12838749    -0.80130
O578        O  0.28356961  0.76779731  0.07730354    -0.84330
O579        O  0.26415127  0.80961963  0.07391110    -0.79180
O580        O  0.27450627  0.76655172  0.13916113    -0.80960
O581        O  0.20636010  0.76770107  0.08819762    -0.83700
C582        C  0.25958843  0.82384785  0.08689219     0.97060
C583        C  0.29803459  0.77567372  0.08830039     1.04500
O584        O  0.24921453  0.77711091  0.10300594    -1.12690
O585        O  0.23623638  0.73386892  0.09841368    -0.75120
O586        O  0.24492738  0.74837886  0.06791498    -0.78600
O587        O  0.25889180  0.82036413  0.10640879    -0.79290
C588        C  0.24113628  0.73250674  0.07922702     0.95970
O589        O  0.22421418  0.78960687  0.06789035    -0.77250
O590        O  0.24269973  0.75155846  0.13989468    -0.82440
C591        C  0.22294379  0.79769523  0.14181148     0.98590
C592        C  0.26137725  0.75361028  0.14681046     1.04510
O593        O  0.24280448  0.79972698  0.14283959    -0.78090
C594        C  0.20725873  0.78060562  0.07302423     1.02810
Fe595      Fe  0.14662001  0.77530625  0.96132811     1.65780
Fe596      Fe  0.10558588  0.75838917  0.98941031     1.73250
Fe597      Fe  0.09777497  0.79009668  0.94746608     1.54410
O598        O  0.11323788  0.81778768  0.95534091    -0.81820
O599        O  0.08011497  0.74870870  0.97209220    -0.80130
O600        O  0.14627184  0.80650890  0.95259775    -0.84330
O601        O  0.14296890  0.76537875  0.93137102    -0.79180
O602        O  0.07561548  0.79664620  0.97125365    -0.80960
O603        O  0.12056951  0.73128685  0.98050757    -0.83700
C604        C  0.13232171  0.77341654  0.91675819     0.97060
C605        C  0.13297594  0.82107779  0.95523523     1.04500
O606        O  0.11662394  0.77442262  0.96600587    -1.12690
O607        O  0.12982200  0.76589044  0.00961047    -0.75120
O608        O  0.15247963  0.78498185  0.99133873    -0.78600
O609        O  0.11683313  0.78563094  0.92036825    -0.79290
C610        C  0.14585444  0.77762157  0.00853542     0.95970
O611        O  0.15091914  0.74424554  0.96904781    -0.77250
O612        O  0.09001049  0.78400753  0.00034316    -0.82440
C613        C  0.07523805  0.74894899  0.95280270     0.98590
C614        C  0.07627873  0.79499180  0.99115431     1.04510
O615        O  0.08183044  0.76274194  0.93997240    -0.78090
C616        C  0.13926738  0.72896400  0.97417712     1.02810
Fe617      Fe  0.98579654  0.78714710  0.12565153     1.65780
Fe618      Fe  0.01299384  0.76644526  0.08618766     1.73250
Fe619      Fe  0.97194943  0.79858075  0.07629090     1.54410
O620        O  0.94481960  0.79491204  0.09583823    -0.81820
O621        O  0.02496337  0.79061969  0.06886944    -0.80130
O622        O  0.95614202  0.77603072  0.12293610    -0.84330
O623        O  0.97546934  0.81771826  0.12318192    -0.79180
O624        O  0.96395882  0.77065886  0.06139655    -0.80960
O625        O  0.03311183  0.77506106  0.11027809    -0.83700
C626        C  0.98052146  0.83130112  0.10967052     0.97060
C627        C  0.94139083  0.78317071  0.11179579     1.04500
O628        O  0.99009804  0.78378038  0.09588131    -1.12690
O629        O  0.00224682  0.74095728  0.10286403    -0.75120
O630        O  0.99468692  0.75696595  0.13276448    -0.78600
O631        O  0.98096733  0.82694564  0.09022828    -0.79290
C632        C  0.99699980  0.74051814  0.12197515     0.95970
O633        O  0.01573271  0.79812930  0.12957545    -0.77250
O634        O  0.99576244  0.75563067  0.06107605    -0.82440
C635        C  0.01588873  0.80058662  0.05426850     0.98590
C636        C  0.97669779  0.75654735  0.05521572     1.04510
O637        O  0.99599927  0.80324645  0.05393466    -0.78090
C638        C  0.03260507  0.78893024  0.12448210     1.02810
Fe639      Fe  0.09230879  0.79374539  0.23615334     1.65780
Fe640      Fe  0.13017797  0.76760284  0.21031357     1.73250
Fe641      Fe  0.14388933  0.80333718  0.24808420     1.54420
O642        O  0.12882049  0.83233965  0.24473699    -0.81820
O643        O  0.14886654  0.75223516  0.23146093    -0.80130
O644        O  0.09678927  0.82494801  0.23260029    -0.84330
O645        O  0.09521295  0.79499370  0.26796737    -0.79180
O646        O  0.16129932  0.81154765  0.22203276    -0.80960
O647        O  0.10652561  0.74660448  0.21755652    -0.83700
C648        C  0.11006076  0.79353608  0.28102805     0.97060
C649        C  0.11133881  0.83773529  0.23666949     1.04500
O650        O  0.12221504  0.78826143  0.23151301    -1.12690
O651        O  0.11212531  0.78107831  0.18708954    -0.75120
O652        O  0.08493419  0.79333343  0.20500458    -0.78600
O653        O  0.12921858  0.79590693  0.27616850    -0.79290
C654        C  0.09410172  0.78943228  0.18790905     0.95970
O655        O  0.08493774  0.76263634  0.23952043    -0.77250
O656        O  0.15456498  0.78559878  0.19978038    -0.82440
C657        C  0.16103408  0.75791619  0.24612781     0.98590
C658        C  0.16412996  0.80220004  0.20480895     1.04510
O659        O  0.16195327  0.77661118  0.25277468    -0.78090
C660        C  0.09076054  0.74647298  0.22967117     1.02810
Fe661      Fe  0.00814446  0.76896722  0.32199792     1.65780
Fe662      Fe  0.98726971  0.79230423  0.36384694     1.73250
Fe663      Fe  0.02151701  0.75173120  0.37032922     1.54410
O664        O  0.01655339  0.72580527  0.35074791    -0.81820
O665        O  0.01238524  0.80388266  0.38042528    -0.80130
O666        O  0.99986282  0.73838743  0.32267089    -0.84330
O667        O  0.03971081  0.76207192  0.32249282    -0.79180
O668        O  0.99534434  0.74293989  0.38747572    -0.80960
O669        O  0.99313428  0.81448406  0.34032806    -0.83700
C670        C  0.05347059  0.76333589  0.33673572     0.97060
C671        C  0.00582510  0.72335328  0.33406412     1.04500
O672        O  0.00538503  0.77073839  0.35218036    -1.12690
O673        O  0.96129992  0.78170983  0.34752783    -0.75120
O674        O  0.97694244  0.77541724  0.31697776    -0.78600
O675        O  0.04931307  0.76046276  0.35589345    -0.79290
C676        C  0.96062279  0.77734640  0.32816561     0.95970
O677        O  0.01638674  0.79976699  0.31922722    -0.77250
O678        O  0.97831533  0.77343531  0.38885715    -0.82440
C679        C  0.02535946  0.79440040  0.39225070     0.98590
C680        C  0.98135797  0.75480314  0.39521663     1.04510
O681        O  0.02806453  0.77475610  0.39194243    -0.78090
C682        C  0.00590376  0.81550699  0.32505349     1.02810
Fe683      Fe  0.34427394  0.76194405  0.98433741     1.65780
Fe684      Fe  0.38556496  0.78582383  0.96353040     1.73250
Fe685      Fe  0.39219632  0.74509068  0.99788382     1.54410
O686        O  0.37237991  0.74713247  0.02450531    -0.81820
O687        O  0.40436885  0.76448513  0.94839476    -0.80130
O688        O  0.34670022  0.76914102  0.01515807    -0.84330
O689        O  0.34409796  0.73062102  0.99179480    -0.79180
O690        O  0.40981653  0.76978519  0.01031639    -0.80960
O691        O  0.36240685  0.78122658  0.94059000    -0.83700
C692        C  0.35616173  0.71600770  0.98626797     0.97060
C693        C  0.35728332  0.75959597  0.02899092     1.04500
O694        O  0.37440528  0.76420011  0.98178285    -1.12690
O695        O  0.36826044  0.80913995  0.97818735    -0.75120
O696        O  0.33797558  0.79249465  0.97818920    -0.78600
O697        O  0.37601161  0.71868022  0.98584506    -0.79290
C698        C  0.34864089  0.80873617  0.98132746     0.95970
O699        O  0.34188761  0.75585263  0.95294917    -0.77250
O700        O  0.40935353  0.79298557  0.98403687    -0.82440
C701        C  0.41639548  0.75021691  0.95546017     0.98590
C702        C  0.41582005  0.78682717  0.00180780     1.04510
O703        O  0.41422391  0.74221807  0.97366404    -0.78090
C704        C  0.34775697  0.76783501  0.93815406     1.02810
Fe705      Fe  0.01219399  0.24343841  0.84136246     1.65780
Fe706      Fe  0.98273972  0.26170082  0.88087882     1.73250
Fe707      Fe  0.02356991  0.22806983  0.89151487     1.54420
O708        O  0.02177216  0.20065248  0.87316237    -0.81820
O709        O  0.00237203  0.27770726  0.90058608    -0.80130
O710        O  0.01208346  0.21167063  0.84134166    -0.84330
O711        O  0.04397285  0.24487966  0.84495202    -0.79180
O712        O  0.99813585  0.21670150  0.90850428    -0.80960
O713        O  0.98633076  0.28502866  0.85854952    -0.83700
C714        C  0.05712013  0.24306479  0.85964101     0.97060
C715        C  0.01594996  0.19723420  0.85431918     1.04500
O716        O  0.00628780  0.24431118  0.87139991    -1.12690
O717        O  0.96160368  0.24625489  0.86215141    -0.75120
O718        O  0.98094386  0.24157605  0.83353260    -0.78600
O719        O  0.05203251  0.23742626  0.87802131    -0.79290
C720        C  0.96356722  0.24085419  0.84319872     0.95970
O721        O  0.01283421  0.27537003  0.83834538    -0.77250
O722        O  0.97446763  0.24191114  0.90455037    -0.82440
C723        C  0.01693761  0.27172359  0.91284644     0.98590
C724        C  0.98079122  0.22525322  0.91308791     1.04510
O725        O  0.02574270  0.25377345  0.91185063    -0.78090
C726        C  0.99955201  0.28879177  0.84424360     1.02810
Fe727      Fe  0.84741276  0.24322612  0.99845457     1.65780
Fe728      Fe  0.88745190  0.26663740  0.97496626     1.73250
Fe729      Fe  0.89647724  0.23420337  0.01623765     1.54420
O730        O  0.87581817  0.23938364  0.04179500    -0.81820
O731        O  0.90679804  0.24361410  0.96384120    -0.80130
O732        O  0.84748586  0.25491735  0.02795921    -0.84330
O733        O  0.84999684  0.21330385  0.00973294    -0.79180
O734        O  0.91109923  0.26210080  0.02417600    -0.80960
O735        O  0.86501925  0.25718561  0.95340661    -0.83700
C736        C  0.86454746  0.19996829  0.00847608     0.97060
C737        C  0.85897986  0.25024380  0.04347612     1.04500
O738        O  0.87737881  0.24802658  0.99666273    -1.12690
O739        O  0.86863721  0.29081239  0.98555186    -0.75120
O740        O  0.83926525  0.27251815  0.98793673    -0.78600
O741        O  0.88378702  0.20505853  0.00898294    -0.79290
C742        C  0.84898916  0.28974592  0.98856915     0.95970
O743        O  0.84670399  0.23175022  0.96848390    -0.77250
O744        O  0.91086257  0.27865469  0.99338613    -0.82440
C745        C  0.91945107  0.23139028  0.97320954     0.98590
C746        C  0.91656158  0.27711128  0.01232777     1.04510
O747        O  0.91897617  0.22826197  0.99295512    -0.78090
C748        C  0.85184974  0.24228373  0.95241770     1.02810
Fe749      Fe  0.98986891  0.61183204  0.97879476     1.65780
Fe750      Fe  0.01536335  0.65216002  0.00041852     1.73250
Fe751      Fe  0.97878648  0.66060972  0.96199226     1.54410
O752        O  0.98090145  0.64024828  0.93602898    -0.81820
O753        O  0.99345080  0.67243839  0.01304694    -0.80130
O754        O  0.99769876  0.61207086  0.94806724    -0.84330
O755        O  0.95833699  0.61455118  0.97221306    -0.79180
O756        O  0.00538411  0.67517241  0.95113609    -0.80960
O757        O  0.00776099  0.63000725  0.02349047    -0.83700
C758        C  0.94535441  0.62934432  0.97432251     0.97060
C759        C  0.99157067  0.62358231  0.93317502     1.04500
O760        O  0.99480207  0.64172235  0.98035759    -1.12690
O761        O  0.03909096  0.63277369  0.98938678    -0.75120
O762        O  0.02047272  0.60378545  0.98475191    -0.78600
O763        O  0.95054124  0.64834204  0.97242922    -0.79290
C764        C  0.03785956  0.61328368  0.98591340     0.95970
O765        O  0.98250954  0.61017433  0.00991985    -0.77250
O766        O  0.02572761  0.67510174  0.97973569    -0.82440
C767        C  0.98105906  0.68524420  0.00405550     0.98590
C768        C  0.02129945  0.68140915  0.96131158     1.04510
O769        O  0.97569712  0.68353234  0.98492978    -0.78090
C770        C  0.99403652  0.61556885  0.02518896     1.02810
Fe771      Fe  0.90201534  0.52851959  0.99021895     1.65780
Fe772      Fe  0.86080338  0.50680146  0.96715451     1.73250
Fe773      Fe  0.85364665  0.54048716  0.00756844     1.54420
O774        O  0.87407095  0.53634095  0.03289521    -0.81820
O775        O  0.84342607  0.53107535  0.95600613    -0.80130
O776        O  0.90103033  0.51791077  0.02025712    -0.84330
O777        O  0.90066313  0.55916589  0.99999678    -0.79180
O778        O  0.83862385  0.51328147  0.01676510    -0.80960
O779        O  0.88348449  0.51452289  0.94521464    -0.83700
C780        C  0.88655058  0.57296174  0.99803602     0.97060
C781        C  0.88999171  0.52451843  0.03535037     1.04500
O782        O  0.87199960  0.52510930  0.98847412    -1.12690
O783        O  0.87828873  0.48140771  0.97706221    -0.75120
O784        O  0.90838503  0.49848005  0.98074359    -0.78600
O785        O  0.86715640  0.56863258  0.99876666    -0.79290
C786        C  0.89813728  0.48163688  0.97853383     0.95970
O787        O  0.90370574  0.53878998  0.95976086    -0.77250
O788        O  0.83693670  0.49643364  0.98620385    -0.82440
C789        C  0.83149311  0.54398554  0.96515966     0.98590
C790        C  0.83221729  0.49832074  0.00539146     1.04510
O791        O  0.83119703  0.54642088  0.98485821    -0.78090
C792        C  0.89781098  0.52830377  0.94395833     1.02810
Fe793      Fe  0.00851652  0.51886798  0.88954688     1.65780
Fe794      Fe  0.98348184  0.49929722  0.84773507     1.73250
Fe795      Fe  0.02524518  0.53286185  0.84066097     1.54410
O796        O  0.02161450  0.56054200  0.85801352    -0.81820
O797        O  0.00529075  0.48359119  0.83076222    -0.80130
O798        O  0.00719598  0.55059842  0.88838184    -0.84330
O799        O  0.04060408  0.51850714  0.88940847    -0.79180
O800        O  0.00185847  0.54386395  0.82132591    -0.80960
O801        O  0.98603088  0.47594835  0.87037290    -0.83700
C802        C  0.05504314  0.51926397  0.87590923     0.97060
C803        C  0.01294097  0.56455898  0.87555534     1.04500
O804        O  0.00577283  0.51717073  0.85918278    -1.12690
O805        O  0.96004846  0.51399944  0.86416379    -0.75120
O806        O  0.97662422  0.51966761  0.89431725    -0.78600
O807        O  0.05183150  0.52377612  0.85691135    -0.79290
C808        C  0.96015848  0.51957337  0.88315008     0.95970
O809        O  0.00999914  0.48700476  0.89300044    -0.77250
O810        O  0.97720010  0.51928140  0.82329405    -0.82440
C811        C  0.02178810  0.48862353  0.82086507     0.98590
C812        C  0.98471453  0.53585021  0.81545347     1.04510
O813        O  0.03008075  0.50676909  0.82154841    -0.78090
C814        C  0.99841092  0.47272552  0.88562000     1.02810
Fe815      Fe  0.24916746  0.62170473  0.23726600     1.65780
Fe816      Fe  0.22496831  0.66238077  0.21493337     1.73250
Fe817      Fe  0.26038530  0.67070528  0.25427382     1.54420
O818        O  0.25674571  0.65075349  0.28069212    -0.81820
O819        O  0.24798002  0.68046686  0.20199970    -0.80130
O820        O  0.24211111  0.62144703  0.26848108    -0.84330
O821        O  0.28087533  0.62387943  0.24305886    -0.79180
O822        O  0.23344737  0.68638190  0.26355292    -0.80960
O823        O  0.23112549  0.63983057  0.19264084    -0.83700
C824        C  0.29427722  0.63846152  0.24396220     0.97060
C825        C  0.24760317  0.63312933  0.28351628     1.04500
O826        O  0.24479808  0.65169895  0.23571340    -1.12690
O827        O  0.20069939  0.64476584  0.22661772    -0.75120
O828        O  0.21803631  0.61489168  0.23149824    -0.78600
O829        O  0.28921814  0.65747822  0.24643136    -0.79290
C830        C  0.20114118  0.62524997  0.22980567     0.95970
O831        O  0.25634805  0.62000612  0.20601242    -0.77250
O832        O  0.21528707  0.68638308  0.23370900    -0.82440
C833        C  0.26036662  0.69336100  0.21061482     0.98590
C834        C  0.21839302  0.69278484  0.25218053     1.04510
O835        O  0.26502066  0.69276094  0.23009244    -0.78090
C836        C  0.24490040  0.62569126  0.19078885     1.02810
Fe837      Fe  0.25617130  0.51603614  0.14042101     1.65780
Fe838      Fe  0.22791941  0.53162820  0.09933504     1.73250
Fe839      Fe  0.27017269  0.50046512  0.09255141     1.54420
O840        O  0.29701603  0.50650486  0.11167679    -0.81820
O841        O  0.21689954  0.50510233  0.08530475    -0.80130
O842        O  0.28537513  0.52816215  0.13628731    -0.84330
O843        O  0.26782221  0.48585712  0.14077405    -0.79180
O844        O  0.27706391  0.52687448  0.07473287    -0.80960
O845        O  0.20833629  0.52487672  0.12464317    -0.83700
C846        C  0.26264631  0.47107409  0.12870147     0.97060
C847        C  0.30027360  0.51966181  0.12642745     1.04500
O848        O  0.25160138  0.51642472  0.11057379    -1.12690
O849        O  0.23783246  0.55911425  0.11298625    -0.75120
O850        O  0.24572420  0.54614934  0.14438285    -0.78600
O851        O  0.26200371  0.47353675  0.10899888    -0.79290
C852        C  0.24286771  0.56142938  0.13203880     0.95970
O853        O  0.22678586  0.50413494  0.14567313    -0.77250
O854        O  0.24449646  0.54006535  0.07262857    -0.82440
C855        C  0.22636831  0.49385506  0.07202833     0.98590
C856        C  0.26347264  0.53899669  0.06640527     1.04510
O857        O  0.24634012  0.49269624  0.07127214    -0.78090
C858        C  0.20949308  0.51220461  0.14000198     1.02810
Fe859      Fe  0.14667381  0.51494866  0.25068104     1.65780
Fe860      Fe  0.10675594  0.53210846  0.22027074     1.73250
Fe861      Fe  0.09591121  0.50286054  0.26439153     1.54420
O862        O  0.11150032  0.47425391  0.26098046    -0.81820
O863        O  0.08474671  0.54731919  0.23780261    -0.80130
O864        O  0.14483369  0.48317634  0.25393314    -0.84330
O865        O  0.14401752  0.52024226  0.28192442    -0.79180
O866        O  0.07569351  0.49295675  0.24062088    -0.80960
O867        O  0.12644174  0.55707997  0.22494551    -0.83700
C868        C  0.13044940  0.51761590  0.29599754     0.97060
C869        C  0.13042356  0.46968000  0.25629935     1.04500
O870        O  0.11638169  0.51670789  0.24520370    -1.12690
O871        O  0.12775242  0.51880854  0.19980395    -0.75120
O872        O  0.15456620  0.50970017  0.22002646    -0.78600
O873        O  0.11221269  0.51047271  0.29211770    -0.79290
C874        C  0.14611106  0.51164004  0.20220928     0.95970
O875        O  0.15105662  0.54659759  0.24749331    -0.77250
O876        O  0.08629094  0.50933399  0.21181982    -0.82440
C877        C  0.07591761  0.54583259  0.25553614     0.98590
C878        C  0.07474037  0.49624839  0.22105877     1.04510
O879        O  0.07862927  0.53041411  0.26795344    -0.78090
C880        C  0.14252706  0.56042772  0.23608661     1.02810
Fe881      Fe  0.24464411  0.67037266  0.97179493     1.65780
Fe882      Fe  0.22319019  0.62924802  0.99597999     1.73250
Fe883      Fe  0.26189446  0.62218904  0.95921468     1.54420
O884        O  0.25947540  0.64108055  0.93175650    -0.81820
O885        O  0.24673512  0.61288499  0.01073603    -0.80130
O886        O  0.23871731  0.66771940  0.94052379    -0.84330
O887        O  0.27653683  0.67042649  0.96705099    -0.79180
O888        O  0.23681950  0.60418246  0.94874923    -0.80960
O889        O  0.22739939  0.65321689  0.01757738    -0.83700
C890        C  0.29182876  0.65778554  0.96849051     0.97060
C891        C  0.24837268  0.65710101  0.92693156     1.04500
O892        O  0.24315142  0.64042271  0.97556834    -1.12690
O893        O  0.19768390  0.64469634  0.98298553    -0.75120
O894        O  0.21302331  0.67504388  0.97571666    -0.78600
O895        O  0.28907168  0.63811734  0.96886684    -0.79290
C896        C  0.19680380  0.66377932  0.97770975     0.95970
O897        O  0.25041115  0.67494211  0.00297922    -0.77250
O898        O  0.21630872  0.60406693  0.97718887    -0.82440
C899        C  0.26020142  0.60039852  0.00318049     0.98590
C900        C  0.22144558  0.59708563  0.95932241     1.04510
O901        O  0.26612977  0.60106797  0.98411714    -0.78090
C902        C  0.23984442  0.66870661  0.01859321     1.02810
Fe903      Fe  0.09648721  0.50017152  0.97938877     1.65780
Fe904      Fe  0.13676335  0.52442798  0.00261590     1.73250
Fe905      Fe  0.14634744  0.48635808  0.96649834     1.54420
O906        O  0.12793070  0.45894656  0.96920985    -0.81820
O907        O  0.15336332  0.53850680  0.97919199    -0.80130
O908        O  0.09834624  0.46900708  0.98492082    -0.84330
O909        O  0.09836167  0.49620082  0.94761870    -0.79180
O910        O  0.16254538  0.47687144  0.99292564    -0.80960
O911        O  0.11275728  0.54592690  0.99730402    -0.83700
C912        C  0.11288620  0.49698234  0.93412469     0.97060
C913        C  0.11057618  0.45494138  0.97840011     1.04500
O914        O  0.12659692  0.50347848  0.98288096    -1.12690
O915        O  0.12052108  0.51136228  0.02718373    -0.75120
O916        O  0.09068631  0.50335966  0.01076121    -0.78600
O917        O  0.13217500  0.49492670  0.93860800    -0.79290
C918        C  0.10157711  0.50528615  0.02727498     0.95970
O919        O  0.09186400  0.53142003  0.97373395    -0.77250
O920        O  0.16214848  0.50645399  0.01132817    -0.82440
C921        C  0.16613500  0.53096124  0.96599775     0.98590
C922        C  0.16877101  0.48806172  0.00806119     1.04510
O923        O  0.16713206  0.51148384  0.96184396    -0.78090
C924        C  0.09766908  0.54707275  0.98434495     1.02810
Fe925      Fe  0.99140799  0.50391876  0.08330473     1.65780
Fe926      Fe  0.01591149  0.52633765  0.12388690     1.73250
Fe927      Fe  0.97584388  0.49179771  0.13231361     1.54420
O928        O  0.94971328  0.49407873  0.11249571    -0.81820
O929        O  0.02747800  0.50356256  0.14342157    -0.80130
O930        O  0.96079346  0.51239085  0.08494061    -0.84330
O931        O  0.98408584  0.47272323  0.08528650    -0.79180
O932        O  0.96614143  0.51947670  0.14660349    -0.80960
O933        O  0.03816308  0.51737590  0.10222107    -0.83700
C934        C  0.98582757  0.45893815  0.09940294     0.97060
C935        C  0.94628837  0.50495077  0.09616189     1.04500
O936        O  0.99441076  0.50740325  0.11329610    -1.12690
O937        O  0.00615477  0.55120410  0.10533062    -0.75120
O938        O  0.99761016  0.53455708  0.07612135    -0.78600
O939        O  0.98512592  0.46332632  0.11884779    -0.79290
C940        C  0.00052504  0.55123483  0.08629771     0.95970
O941        O  0.02228427  0.49556316  0.08020187    -0.77250
O942        O  0.99624333  0.53762978  0.14653002    -0.82440
C943        C  0.01818775  0.49176611  0.15642013     0.98590
C944        C  0.97715012  0.53532354  0.15171326     1.04510
O945        O  0.99871248  0.48762620  0.15526450    -0.78090
C946        C  0.03868778  0.50422269  0.08739488     1.02810
Fe947      Fe  0.98204589  0.67939652  0.22855110     1.65780
Fe948      Fe  0.01073403  0.64044198  0.20753786     1.73250
Fe949      Fe  0.97309334  0.62926204  0.24486946     1.54420
O950        O  0.97646402  0.64761086  0.27168779    -0.81820
O951        O  0.99077882  0.61836170  0.19467327    -0.80130
O952        O  0.98577288  0.67928235  0.26019388    -0.84330
O953        O  0.95053872  0.67494398  0.23050729    -0.79180
O954        O  0.99989034  0.61363057  0.25424114    -0.80960
O955        O  0.00253703  0.66123839  0.18379597    -0.83700
C956        C  0.93785776  0.66002803  0.23303081     0.97060
C957        C  0.98295431  0.66616041  0.27474547     1.04500
O958        O  0.98858473  0.64955955  0.22697808    -1.12690
O959        O  0.03288090  0.66155770  0.21882027    -0.75120
O960        O  0.01265279  0.68863355  0.22688349    -0.78600
O961        O  0.94365550  0.64165255  0.23769050    -0.79290
C962        C  0.03053573  0.68038523  0.22460792     0.95970
O963        O  0.97818760  0.68232351  0.19689021    -0.77250
O964        O  0.02264030  0.61883550  0.22831021    -0.82440
C965        C  0.97655848  0.60641914  0.20206116     0.98590
C966        C  0.01740609  0.61033437  0.24547464     1.04510
O967        O  0.96903534  0.60841909  0.22038924    -0.78090
C968        C  0.98940741  0.67606483  0.18181640     1.02810
Fe969      Fe  0.24197860  0.03488119  0.82329591     1.65780
Fe970      Fe  0.26931388  0.00685680  0.85842240     1.73250
Fe971      Fe  0.23154786  0.04101315  0.87469562     1.54410
O972        O  0.23166250  0.07020429  0.85967324    -0.81820
O973        O  0.24888866  0.99008859  0.87725665    -0.80130
O974        O  0.24911354  0.06498554  0.82984685    -0.84330
O975        O  0.21035702  0.04029559  0.82824024    -0.79180
O976        O  0.25805139  0.05020916  0.89077986    -0.80960
O977        O  0.26039306  0.98772140  0.83344242    -0.83700
C978        C  0.19842851  0.03253262  0.84201716     0.97060
C979        C  0.24213139  0.07683935  0.84404162     1.04500
O980        O  0.24789418  0.02761864  0.85231687    -1.12690
O981        O  0.29202412  0.02135102  0.83994668    -0.75120
O982        O  0.27240402  0.03134393  0.81307591    -0.78600
O983        O  0.20404485  0.03085645  0.86091685    -0.79290
C984        C  0.29019751  0.02806365  0.82129773     0.95970
O985        O  0.23532057  0.00440365  0.81559416    -0.77250
O986        O  0.28031594  0.02398356  0.88383681    -0.82440
C987        C  0.23566625  0.99573487  0.89102970     0.98590
C988        C  0.27511597  0.04037625  0.89392686     1.04510
O989        O  0.22958702  0.01447895  0.89284973    -0.78090
C990        C  0.24635773  0.98821464  0.81914055     1.02810
Fe991      Fe  0.23805973  0.86539930  0.98642454     1.65780
Fe992      Fe  0.26307016  0.90489839  0.96402925     1.73250
Fe993      Fe  0.22207434  0.91451748  0.99608698     1.54420
O994        O  0.19558856  0.89456635  0.99130547    -0.81820
O995        O  0.27528917  0.92253862  0.98775066    -0.80130
O996        O  0.20850060  0.86669918  0.97465586    -0.84330
O997        O  0.22663908  0.86805759  0.01635251    -0.79180
O998        O  0.21423215  0.92931745  0.96804776    -0.80960
O999        O  0.28363115  0.88122389  0.97232329    -0.83700
C1000       C  0.23076213  0.88203298  0.02962746     0.97060
C1001       C  0.19324311  0.87822263  0.97991837     1.04500
O1002       O  0.24093182  0.89517605  0.98215518    -1.12690
O1003       O  0.25076321  0.88795122  0.93953778    -0.75120
O1004       O  0.24823448  0.85810526  0.95688366    -0.78600
O1005       O  0.23039612  0.90130376  0.02488160    -0.79290
C1006       C  0.24658689  0.86862868  0.94016627     0.95970
O1007       O  0.26825020  0.86336096  0.99787536    -0.77250
O1008       O  0.24596239  0.92961482  0.95322327    -0.82440
C1009       C  0.26608627  0.93611941  0.99894777     0.98590
C1010       C  0.22692828  0.93526977  0.95385118     1.04510
O1011       O  0.24615933  0.93645474  0.00146412    -0.78090
C1012       C  0.28445422  0.86814408  0.98727924     1.02810
Fe1013     Fe  0.59978540  0.51782878  0.48204422     1.65780
Fe1014     Fe  0.64051154  0.53798739  0.50773596     1.73250
Fe1015     Fe  0.64845200  0.50261555  0.46860314     1.54410
O1016       O  0.62804114  0.47627611  0.47094716    -0.81820
O1017       O  0.66056741  0.55224955  0.48698314    -0.80130
O1018       O  0.60055247  0.48720860  0.48982261    -0.84330
O1019       O  0.60096604  0.51069152  0.45073249    -0.79180
O1020       O  0.66459136  0.49056348  0.49421088    -0.80960
O1021       O  0.61828272  0.56104978  0.50101943    -0.83700
C1022       C  0.61461898  0.51453614  0.43697663     0.97060
C1023       C  0.61187585  0.47276251  0.48243593     1.04500
O1024       O  0.62992910  0.51943390  0.48616448    -1.12690
O1025       O  0.62168788  0.52473027  0.53060388    -0.75120
O1026       O  0.59208326  0.52406432  0.51254042    -0.78600
O1027       O  0.63414350  0.51422710  0.44121499    -0.79290
C1028       C  0.60202166  0.52207353  0.52954353     0.95970
O1029       O  0.59884199  0.54885565  0.47470773    -0.77250
O1030       O  0.66339128  0.51713657  0.51685733    -0.82440
C1031       C  0.67293591  0.54495576  0.47323069     0.98590
C1032       C  0.66988600  0.49922197  0.51131739     1.04510
O1033       O  0.67107911  0.52652138  0.46577886    -0.78090
C1034       C  0.60455843  0.56362081  0.48667874     1.02810
Fe1035     Fe  0.49391112  0.62266390  0.49205332     1.65780
Fe1036     Fe  0.52049904  0.66272727  0.51411376     1.73250
Fe1037     Fe  0.48209268  0.67276248  0.47721061     1.54410
O1038       O  0.48519017  0.65492833  0.44971373    -0.81820
O1039       O  0.49964317  0.68277380  0.52768349    -0.80130
O1040       O  0.49569282  0.62335095  0.46021284    -0.84330
O1041       O  0.46192691  0.62537625  0.49206772    -0.79180
O1042       O  0.50863788  0.68959593  0.46756954    -0.80960
O1043       O  0.51388847  0.64150541  0.53747916    -0.83700
C1044       C  0.44843172  0.63973799  0.49019445     0.97060
C1045       C  0.49165089  0.63645707  0.44595394     1.04500
O1046       O  0.49878801  0.65281104  0.49439793    -1.12690
O1047       O  0.54355386  0.64366295  0.50212235    -0.75120
O1048       O  0.52534028  0.61588583  0.49167487    -0.78600
O1049       O  0.45329297  0.65841919  0.48513972    -0.79290
C1050       C  0.54252385  0.62543861  0.49454106     0.95970
O1051       O  0.49176710  0.61851578  0.52372217    -0.77250
O1052       O  0.53095066  0.68522951  0.49411257    -0.82440
C1053       C  0.48515423  0.69457239  0.52084733     0.98590
C1054       C  0.52598905  0.69331845  0.47675426     1.04510
O1055       O  0.47773758  0.69330086  0.50233756    -0.78090
C1056       C  0.50178767  0.62592943  0.53910126     1.02810
Fe1057     Fe  0.49224999  0.51596959  0.59298279     1.65780
Fe1058     Fe  0.52079402  0.53451748  0.63289633     1.73250
Fe1059     Fe  0.47823741  0.50420335  0.64266076     1.54420
O1060       O  0.45074764  0.50925276  0.62437068    -0.81820
O1061       O  0.53190793  0.50883789  0.64829812    -0.80130
O1062       O  0.46192127  0.52570713  0.59577642    -0.84330
O1063       O  0.48404570  0.48473710  0.59477841    -0.79180
O1064       O  0.47196072  0.53211406  0.65794853    -0.80960
O1065       O  0.54057318  0.52733213  0.60828744    -0.83700
C1066       C  0.48570599  0.47116314  0.60921727     0.97060
C1067       C  0.44729065  0.51994939  0.60779572     1.04500
O1068       O  0.49692216  0.51839422  0.62283130    -1.12690
O1069       O  0.51096701  0.56104840  0.61764679    -0.75120
O1070       O  0.49962746  0.54686989  0.58778037    -0.78600
O1071       O  0.48470926  0.47571104  0.62854306    -0.79290
C1072       C  0.50436588  0.56255322  0.59898704     0.95970
O1073       O  0.52257765  0.50647492  0.58729449    -0.77250
O1074       O  0.50467179  0.54472765  0.65885935    -0.82440
C1075       C  0.52272408  0.49817114  0.66227156     0.98590
C1076       C  0.48550405  0.54529539  0.66427981     1.04510
O1077       O  0.50274568  0.49743531  0.66381887    -0.78090
C1078       C  0.53958852  0.51526010  0.59263094     1.02810
Fe1079     Fe  0.59195761  0.00464015  0.98240885     1.65780
Fe1080     Fe  0.62823142  0.03448794  0.00469246     1.73250
Fe1081     Fe  0.64330867  0.99562372  0.97250866     1.54420
O1082       O  0.62697653  0.96690687  0.97557091    -0.81820
O1083       O  0.64380903  0.04861734  0.98064969    -0.80130
O1084       O  0.59736586  0.97512635  0.99232470    -0.84330
O1085       O  0.59614521  0.99629106  0.95147157    -0.79180
O1086       O  0.65918996  0.98895517  0.00034700    -0.80960
O1087       O  0.60221343  0.05204586  0.99692775    -0.83700
C1088       C  0.61023079  0.00224768  0.93881450     0.97060
C1089       C  0.61069511  0.96189875  0.98616451     1.04500
O1090       O  0.62126684  0.01130964  0.98682098    -1.12690
O1091       O  0.61275540  0.02143563  0.02969734    -0.75120
O1092       O  0.58381819  0.01137236  0.01288889    -0.78600
O1093       O  0.62943083  0.00336402  0.94405541    -0.79290
C1094       C  0.59399344  0.01481896  0.02964438     0.95970
O1095       O  0.58486176  0.03447293  0.97258418    -0.77250
O1096       O  0.65516121  0.02026208  0.01484751    -0.82440
C1097       C  0.65934906  0.04145162  0.97058774     0.98590
C1098       C  0.66443693  0.00276315  0.01371900     1.04510
O1099       O  0.66233826  0.02191297  0.96823865    -0.78090
C1100       C  0.58829842  0.05111806  0.98274250     1.02810
Fe1101     Fe  0.50567929  0.92321782  0.00331809     1.65780
Fe1102     Fe  0.48346494  0.88353468  0.97738826     1.73250
Fe1103     Fe  0.51739800  0.87391335  0.01784448     1.54410
O1104       O  0.54475807  0.89269699  0.01740342    -0.81820
O1105       O  0.46856617  0.86319097  0.99716673    -0.80130
O1106       O  0.53678971  0.92006495  0.99711334    -0.84330
O1107       O  0.51090725  0.92124629  0.03516735    -0.79180
O1108       O  0.53000558  0.85806682  0.99267640    -0.80960
O1109       O  0.46058080  0.90533841  0.98466144    -0.83700
C1110       C  0.50552083  0.90776007  0.04861806     0.97060
C1111       C  0.55006055  0.90792557  0.00553486     1.04500
O1112       O  0.50211463  0.89332288  0.99940469    -1.12690
O1113       O  0.49591838  0.90258576  0.95441115    -0.75120
O1114       O  0.50145920  0.93155064  0.97241785    -0.78600
O1115       O  0.50500657  0.88838859  0.04439667    -0.79290
C1116       C  0.49974041  0.92192675  0.95527442     0.95970
O1117       O  0.47419394  0.92657838  0.00890909    -0.77250
O1118       O  0.50484001  0.86135800  0.96828692    -0.82440
C1119       C  0.47471189  0.85080828  0.01138426     0.98590
C1120       C  0.52234507  0.85424207  0.97471748     1.04510
O1121       O  0.49284155  0.85208500  0.01973424    -0.78090
C1122       C  0.45878196  0.91984169  0.99816691     1.02810
Fe1123     Fe  0.50863143  0.03091103  0.89469166     1.65780
Fe1124     Fe  0.48877035  0.00773956  0.85208956     1.73250
Fe1125     Fe  0.52392341  0.04748982  0.84655169     1.54420
O1126       O  0.51870895  0.07393675  0.86578540    -0.81820
O1127       O  0.51412175  0.99520974  0.83676618    -0.80130
O1128       O  0.50159407  0.06181809  0.89376574    -0.84330
O1129       O  0.54036445  0.03670072  0.89536923    -0.79180
O1130       O  0.49814016  0.05662050  0.82853449    -0.80960
O1131       O  0.49264741  0.98601458  0.87608932    -0.83700
C1132       C  0.55456785  0.03524899  0.88162949     0.97060
C1133       C  0.50792577  0.07671692  0.88241338     1.04500
O1134       O  0.50692418  0.02899517  0.86435607    -1.12690
O1135       O  0.46253758  0.01917327  0.86699785    -0.75120
O1136       O  0.47697678  0.02560539  0.89818425    -0.78600
O1137       O  0.55114451  0.03838673  0.86229422    -0.79290
C1138       C  0.46112339  0.02356910  0.88628775     0.95970
O1139       O  0.51564029  0.99973406  0.89822174    -0.77250
O1140       O  0.48122894  0.02613446  0.82658026    -0.82440
C1141       C  0.52750729  0.00410285  0.82498324     0.98590
C1142       C  0.48410326  0.04484975  0.82062551     1.04510
O1143       O  0.53075814  0.02375312  0.82521078    -0.78090
C1144       C  0.50445208  0.98462078  0.89204977     1.02810
Fe1145     Fe  0.59700761  0.28211101  0.24812049     1.65780
Fe1146     Fe  0.63893861  0.25967059  0.22632414     1.73250
Fe1147     Fe  0.64550573  0.29749139  0.26327631     1.54410
O1148       O  0.62539638  0.32387366  0.26102688    -0.81820
O1149       O  0.65564792  0.24596532  0.24996843    -0.80130
O1150       O  0.59808625  0.31328136  0.24190247    -0.84330
O1151       O  0.59757536  0.28696904  0.27995705    -0.79180
O1152       O  0.66156482  0.30849665  0.23734651    -0.80960
O1153       O  0.61573094  0.23738405  0.23082899    -0.83700
C1154       C  0.61134733  0.28636886  0.29429631     0.97060
C1155       C  0.60883784  0.32759542  0.25027962     1.04500
O1156       O  0.62723079  0.27987502  0.24587573    -1.12690
O1157       O  0.62285791  0.27204504  0.20117496    -0.75120
O1158       O  0.59209309  0.27793648  0.21660008    -0.78600
O1159       O  0.63093089  0.28755016  0.29066331    -0.79290
C1160       C  0.60352377  0.27666832  0.20042074     0.95970
O1161       O  0.59384049  0.25081115  0.25416395    -0.77250
O1162       O  0.66365777  0.27900206  0.21880853    -0.82440
C1163       C  0.66916524  0.25450100  0.26171278     0.98590
C1164       C  0.66903529  0.29774525  0.22243049     1.04510
O1165       O  0.66821618  0.27370887  0.26702654    -0.78090
C1166       C  0.60042657  0.23556348  0.24338845     1.02810
Fe1167     Fe  0.49452480  0.28037000  0.14256184     1.65780
Fe1168     Fe  0.51826976  0.26258496  0.09945637     1.73250
Fe1169     Fe  0.47734784  0.29648026  0.09523278     1.54420
O1170       O  0.45159822  0.29247637  0.11579914    -0.81820
O1171       O  0.52950028  0.28809596  0.08394147    -0.80130
O1172       O  0.46364233  0.27212670  0.14142145    -0.84330
O1173       O  0.48763545  0.31194733  0.14344472    -0.79180
O1174       O  0.46754971  0.27001939  0.07908868    -0.80960
O1175       O  0.54080349  0.26794728  0.12234167    -0.83700
C1176       C  0.48855755  0.32672511  0.13018448     0.97060
C1177       C  0.44863137  0.28050181  0.13153572     1.04500
O1178       O  0.49659237  0.27968146  0.11238909    -1.12690
O1179       O  0.50858056  0.23582418  0.11440853    -0.75120
O1180       O  0.50101098  0.24892489  0.14580241    -0.78600
O1181       O  0.48679160  0.32374476  0.11055166    -0.79290
C1182       C  0.50397449  0.23363233  0.13354409     0.95970
O1183       O  0.52549341  0.28842191  0.14580779    -0.77250
O1184       O  0.49872820  0.25442797  0.07494146    -0.82440
C1185       C  0.51973332  0.29943241  0.07093556     0.98590
C1186       C  0.47919877  0.25599864  0.07104472     1.04510
O1187       O  0.49994785  0.30236888  0.07193575    -0.78090
C1188       C  0.54165867  0.27972743  0.13826478     1.02810
Fe1189     Fe  0.49163810  0.17798680  0.23741402     1.65780
Fe1190     Fe  0.51564436  0.13487792  0.22126365     1.73250
Fe1191     Fe  0.47844638  0.13170773  0.25993211     1.54420
O1192       O  0.48269452  0.15372849  0.28428438    -0.81820
O1193       O  0.49192077  0.11720253  0.20898106    -0.80130
O1194       O  0.49640010  0.18192619  0.26859124    -0.84330
O1195       O  0.45986286  0.17751036  0.24125083    -0.79180
O1196       O  0.50445473  0.11541604  0.27110838    -0.80960
O1197       O  0.51242323  0.15605784  0.19666137    -0.83700
C1198       C  0.44582194  0.16423217  0.24541876     0.97060
C1199       C  0.49029818  0.17223749  0.28479171     1.04500
O1200       O  0.49522123  0.14808183  0.23990767    -1.12690
O1201       O  0.53994380  0.15236652  0.23346010    -0.75120
O1202       O  0.52332500  0.18304742  0.23340109    -0.78600
O1203       O  0.44999827  0.14570368  0.25127736    -0.79290
C1204       C  0.53979543  0.17207491  0.23560350     0.95970
O1205       O  0.48593568  0.17614247  0.20605051    -0.77250
O1206       O  0.52307459  0.11144393  0.24196376    -0.82440
C1207       C  0.47774544  0.10638569  0.21794971     0.98590
C1208       C  0.51914110  0.10686748  0.26080565     1.04510
O1209       O  0.47271324  0.10854716  0.23723067    -0.78090
C1210       C  0.49869902  0.16976350  0.19242816     1.02810
Fe1211     Fe  0.64973840  0.00990520  0.25908337     1.65780
Fe1212     Fe  0.61208151  0.03440062  0.23260236     1.73250
Fe1213     Fe  0.59928704  0.99971607  0.27100758     1.54420
O1214       O  0.61688987  0.97141361  0.26917456    -0.81820
O1215       O  0.59383626  0.05090639  0.25338702    -0.80130
O1216       O  0.64599223  0.97950184  0.25116541    -0.84330
O1217       O  0.64710338  0.00232593  0.29013512    -0.79180
O1218       O  0.58183931  0.99004927  0.24466949    -0.80960
O1219       O  0.63703669  0.05454562  0.23951092    -0.83700
C1220       C  0.63380031  0.00807898  0.30348542     0.97060
C1221       C  0.63329441  0.96624954  0.25870689     1.04500
O1222       O  0.61998660  0.01459566  0.25419302    -1.12690
O1223       O  0.62939875  0.01834305  0.21032513    -0.75120
O1224       O  0.65850477  0.01592965  0.22896000    -0.78600
O1225       O  0.61439404  0.00970203  0.29882831    -0.79290
C1226       C  0.64865838  0.01362564  0.21198219     0.95970
O1227       O  0.65398529  0.04071002  0.26669942    -0.77250
O1228       O  0.58642717  0.01715131  0.22303967    -0.82440
C1229       C  0.58031930  0.04460524  0.26661918     0.98590
C1230       C  0.57735346  0.00017535  0.22797142     1.04510
O1231       O  0.57968556  0.02587415  0.27350564    -0.78090
C1232       C  0.65038339  0.05590373  0.25437259     1.02810
Fe1233     Fe  0.48641129  0.01261950  0.09103894     1.65780
Fe1234     Fe  0.51139818  0.03510781  0.13109594     1.73250
Fe1235     Fe  0.47249981  0.99961999  0.13997912     1.54420
O1236       O  0.44545723  0.00229190  0.11982143    -0.81820
O1237       O  0.52465563  0.01232056  0.14948048    -0.80130
O1238       O  0.45608083  0.02204423  0.09304935    -0.84330
O1239       O  0.47777048  0.98150379  0.09279567    -0.79180
O1240       O  0.46256858  0.02623780  0.15554165    -0.80960
O1241       O  0.53280515  0.02733703  0.10774384    -0.83700
C1242       C  0.48168220  0.96765416  0.10642787     0.97060
C1243       C  0.44160031  0.01363542  0.10360416     1.04500
O1244       O  0.49000347  0.01598796  0.12093026    -1.12690
O1245       O  0.50000075  0.05988353  0.11362313    -0.75120
O1246       O  0.49388618  0.04308565  0.08389834    -0.78600
O1247       O  0.48246590  0.97191365  0.12583182    -0.79290
C1248       C  0.49569623  0.05981859  0.09427429     0.95970
O1249       O  0.51695168  0.00344358  0.08797081    -0.77250
O1250       O  0.49233523  0.04498214  0.15522314    -0.82440
C1251       C  0.51638549  0.00045099  0.16308306     0.98590
C1252       C  0.47366825  0.04166620  0.16150990     1.04510
O1253       O  0.49684333  0.99566921  0.16257503    -0.78090
C1254       C  0.53320601  0.01351094  0.09344046     1.02810
Fe1255     Fe  0.48032860  0.11992197  0.98424152     1.65780
Fe1256     Fe  0.51048999  0.15665886  0.00590990     1.73250
Fe1257     Fe  0.47258061  0.16985658  0.97085213     1.54410
O1258       O  0.48275125  0.15498436  0.94377385    -0.81820
O1259       O  0.49370513  0.18250949  0.01622947    -0.80130
O1260       O  0.47236289  0.12323375  0.95283473    -0.84330
O1261       O  0.45081273  0.12659533  0.99386251    -0.79180
O1262       O  0.49823571  0.19010261  0.96769449    -0.80960
O1263       O  0.49864044  0.14032328  0.03117400    -0.83700
C1264       C  0.43796253  0.13737371  0.98341565     0.97060
C1265       C  0.48027830  0.13576080  0.93960094     1.04500
O1266       O  0.48775258  0.14899164  0.98740899    -1.12690
O1267       O  0.52905073  0.13123713  0.99721871    -0.75120
O1268       O  0.50996951  0.11223395  0.97503685    -0.78600
O1269       O  0.44395283  0.15247826  0.97167772    -0.79290
C1270       C  0.52721953  0.11640072  0.98403392     0.95970
O1271       O  0.48693603  0.11204943  0.01484199    -0.77250
O1272       O  0.52489282  0.17340967  0.98267357    -0.82440
C1273       C  0.47569080  0.19075707  0.01306238     0.98590
C1274       C  0.51776210  0.18808424  0.97142388     1.04510
O1275       O  0.46383765  0.18592798  0.99766123    -0.78090
C1276       C  0.49188163  0.12171927  0.03142212     1.02810
Fe1277     Fe  0.65068885  0.28263619  0.98339083     1.65780
Fe1278     Fe  0.61014989  0.25834834  0.00596064     1.73250
Fe1279     Fe  0.60185023  0.29358798  0.96673512     1.54410
O1280       O  0.62060983  0.32102494  0.96743692    -0.81820
O1281       O  0.59369901  0.24300226  0.98322122    -0.80130
O1282       O  0.64667810  0.31335785  0.98945431    -0.84330
O1283       O  0.65024285  0.28757849  0.95131306    -0.79180
O1284       O  0.58478757  0.30536460  0.99156311    -0.80960
O1285       O  0.63460120  0.23704864  0.00133461    -0.83700
C1286       C  0.63717210  0.28188097  0.93747655     0.97060
C1287       C  0.63577274  0.32644376  0.97940627     1.04500
O1288       O  0.62071762  0.27828680  0.98558325    -1.12690
O1289       O  0.62598733  0.27178203  0.03073089    -0.75120
O1290       O  0.65621111  0.27878204  0.01487216    -0.78600
O1291       O  0.61753904  0.28147495  0.94091586    -0.79290
C1292       C  0.64521699  0.27682298  0.03126064     0.95970
O1293       O  0.65586168  0.25163989  0.97785291    -0.77250
O1294       O  0.58476319  0.27748051  0.01290924    -0.82440
C1295       C  0.58053664  0.24990365  0.97003767     0.98590
C1296       C  0.57813713  0.29551498  0.00754842     1.04510
O1297       O  0.58036076  0.26888352  0.96399831    -0.78090
C1298       C  0.65010693  0.23608056  0.98877768     1.02810
Fe1299     Fe  0.01148014  0.87465356  0.21224880     1.65780
Fe1300     Fe  0.98483048  0.91288450  0.23624802     1.73250
Fe1301     Fe  0.02061956  0.92466948  0.19821466     1.54410
O1302       O  0.04919696  0.90778910  0.20002446    -0.81820
O1303       O  0.96976696  0.93129151  0.21482745    -0.80130
O1304       O  0.04190031  0.87983512  0.21965401    -0.84330
O1305       O  0.01763946  0.87681101  0.18051180    -0.79180
O1306       O  0.03068515  0.94152896  0.22415089    -0.80960
O1307       O  0.96416054  0.88914354  0.22814280    -0.83700
C1308       C  0.01104519  0.88987296  0.16714459     0.97060
C1309       C  0.05480475  0.89273167  0.21197037     1.04500
O1310       O  0.00569232  0.90427898  0.21580746    -1.12690
O1311       O  0.99729906  0.89531468  0.26041185    -0.75120
O1312       O  0.00697703  0.86686876  0.24325590    -0.78600
O1313       O  0.00992017  0.90926661  0.17128132    -0.79290
C1314       C  0.00354837  0.87656044  0.26015496     0.95970
O1315       O  0.98069858  0.86863125  0.20527224    -0.77250
O1316       O  0.00364063  0.93719078  0.24623396    -0.82440
C1317       C  0.97620315  0.94453514  0.20158051     0.98590
C1318       C  0.02113611  0.94543520  0.24121839     1.04510
O1319       O  0.99502177  0.94485210  0.19495792    -0.78090
C1320       C  0.96422806  0.87428343  0.21490514     1.02810
Fe1321     Fe  0.84686433  0.03872208  0.22892145     1.65780
Fe1322     Fe  0.88712945  0.01178068  0.24983754     1.73250
Fe1323     Fe  0.89666201  0.05059134  0.21383722     1.54410
O1324       O  0.87739366  0.04832452  0.18699357    -0.81820
O1325       O  0.90856006  0.03200597  0.26319180    -0.80130
O1326       O  0.84764537  0.03317974  0.19777904    -0.84330
O1327       O  0.84940083  0.07035471  0.22458657    -0.79180
O1328       O  0.91256615  0.02473428  0.20259237    -0.80960
O1329       O  0.86609328  0.01965063  0.27347159    -0.83700
C1330       C  0.86416819  0.08321438  0.22729853     0.97060
C1331       C  0.86023621  0.03857104  0.18348033     1.04500
O1332       O  0.87708489  0.03359406  0.23081870    -1.12690
O1333       O  0.86673303  0.98900035  0.23847893    -0.75120
O1334       O  0.83830679  0.00805032  0.23249041    -0.78600
O1335       O  0.88329743  0.07830546  0.22476986    -0.79290
C1336       C  0.84735610  0.99053987  0.23404242     0.95970
O1337       O  0.84462322  0.04395080  0.26045325    -0.77250
O1338       O  0.90888598  0.00133805  0.22838873    -0.82440
C1339       C  0.92037937  0.04644064  0.25622170     0.98590
C1340       C  0.91647471  0.00712071  0.21092261     1.04510
O1341       O  0.91861410  0.05389072  0.23783629    -0.78090
C1342       C  0.85149121  0.03308225  0.27562661     1.02810
Fe1343     Fe  0.25378196  0.28133034  0.59017606     1.65780
Fe1344     Fe  0.22922493  0.25987410  0.63123135     1.73250
Fe1345     Fe  0.26890208  0.29466288  0.63868520     1.54410
O1346       O  0.29501373  0.29304356  0.61861643    -0.81820
O1347       O  0.21727295  0.28337029  0.64929697    -0.80130
O1348       O  0.28443803  0.27279874  0.59242870    -0.84330
O1349       O  0.26084705  0.31290311  0.59164412    -0.79180
O1350       O  0.27945512  0.26738443  0.65274493    -0.80960
O1351       O  0.20711123  0.26754556  0.60877342    -0.83700
C1352       C  0.25760188  0.32665627  0.60554626     0.97060
C1353       C  0.29883940  0.28087470  0.60335001     1.04500
O1354       O  0.25060560  0.27849385  0.62010259    -1.12690
O1355       O  0.23927089  0.23457976  0.61394461    -0.75120
O1356       O  0.24755148  0.25034527  0.58402554    -0.78600
O1357       O  0.25823687  0.32244687  0.62503523    -0.79290
C1358       C  0.24447429  0.23401937  0.59484486     0.95970
O1359       O  0.22289495  0.28939070  0.58664338    -0.77250
O1360       O  0.24904930  0.24977961  0.65465032    -0.82440
C1361       C  0.22669460  0.29413482  0.66298641     0.98590
C1362       C  0.26847915  0.25187562  0.65879403     1.04510
O1363       O  0.24626061  0.29797136  0.66207549    -0.78090
C1364       C  0.20659024  0.28028054  0.59352117     1.02810
Fe1365     Fe  0.02224371  0.92219958  0.47581287     1.65780
Fe1366     Fe  0.99645981  0.87901115  0.45993556     1.73250
Fe1367     Fe  0.03730002  0.87475772  0.49578037     1.54420
O1368       O  0.06486790  0.89076967  0.48804676    -0.81820
O1369       O  0.98727720  0.85897603  0.48344941    -0.80130
O1370       O  0.05422329  0.92081796  0.47432131    -0.84330
O1371       O  0.02177489  0.92422453  0.50740926    -0.79180
O1372       O  0.04436599  0.85424270  0.47182491    -0.80960
O1373       O  0.97278998  0.89886229  0.46941890    -0.83700
C1374       C  0.02384751  0.91215256  0.52297254     0.97060
C1375       C  0.06858057  0.90808885  0.47912095     1.04500
O1376       O  0.01864932  0.89187902  0.47723764    -1.12690
O1377       O  0.00201980  0.89732843  0.43354222    -0.75120
O1378       O  0.02316701  0.92287319  0.44404849    -0.78600
O1379       O  0.03087183  0.89360990  0.52145798    -0.79290
C1380       C  0.01340750  0.91318484  0.42988685     0.95970
O1381       O  0.99024628  0.92810267  0.47668392    -0.77250
O1382       O  0.01792255  0.85822700  0.44884797    -0.82440
C1383       C  0.99511237  0.85105641  0.49988309     0.98590
C1384       C  0.03517964  0.85013821  0.45464950     1.04510
O1385       O  0.01342237  0.85537463  0.50632951    -0.78090
C1386       C  0.97324537  0.91791612  0.47465024     1.02810
Fe1387     Fe  0.91485220  0.02668728  0.49349993     1.65780
Fe1388     Fe  0.87334694  0.00530540  0.47005410     1.73250
Fe1389     Fe  0.86676949  0.03923979  0.51043978     1.54410
O1390       O  0.88788360  0.03594725  0.53604618    -0.81820
O1391       O  0.85574189  0.02951955  0.45860623    -0.80130
O1392       O  0.91432596  0.01682885  0.52353675    -0.84330
O1393       O  0.91335604  0.05770916  0.50249237    -0.79180
O1394       O  0.85230249  0.01260080  0.52047434    -0.80960
O1395       O  0.89654432  0.01216064  0.44787619    -0.83700
C1396       C  0.89914115  0.07131589  0.49975364     0.97060
C1397       C  0.90385454  0.02406160  0.53864410     1.04500
O1398       O  0.88486722  0.02339390  0.49154657    -1.12690
O1399       O  0.89063753  0.97978760  0.47975000    -0.75120
O1400       O  0.92107979  0.99604215  0.48517752    -0.78600
O1401       O  0.87980591  0.06691655  0.50044160    -0.79290
C1402       C  0.91036338  0.97951206  0.48253378     0.95970
O1403       O  0.91616653  0.03646795  0.46316947    -0.77250
O1404       O  0.84935811  0.99570365  0.48991599    -0.82440
C1405       C  0.84251362  0.04087622  0.46808239     0.98590
C1406       C  0.84475662  0.99822070  0.50916112     1.04510
O1407       O  0.84322197  0.04385394  0.48779767    -0.78090
C1408       C  0.91164922  0.02517594  0.44756548     1.02810
Fe1409     Fe  0.00844375  0.99724530  0.58006046     1.65780
Fe1410     Fe  0.03033396  0.02423968  0.61859230     1.73250
Fe1411     Fe  0.99409364  0.98617702  0.62868420     1.54410
O1412       O  0.96726230  0.99890426  0.61559659    -0.81820
O1413       O  0.04090718  0.00372246  0.64166737    -0.80130
O1414       O  0.97634366  0.99112576  0.58294942    -0.84330
O1415       O  0.01786018  0.96788422  0.58759296    -0.79180
O1416       O  0.99293661  0.00864487  0.65179639    -0.80960
O1417       O  0.05555641  0.01465224  0.60023144    -0.83700
C1418       C  0.00463165  0.95503806  0.59433144     0.97060
C1419       C  0.96304538  0.99780085  0.59620584     1.04500
O1420       O  0.01097266  0.00315650  0.60921448    -1.12690
O1421       O  0.02084643  0.04545969  0.59551294    -0.75120
O1422       O  0.00090948  0.02750424  0.57290675    -0.78600
O1423       O  0.99196667  0.96007719  0.60875480    -0.79290
C1424       C  0.00870948  0.04455348  0.57956777     0.95970
O1425       O  0.03910143  0.00245781  0.57228115    -0.77250
O1426       O  0.00760705  0.03680245  0.63765362    -0.82440
C1427       C  0.03721992  0.98486881  0.64739381     0.98590
C1428       C  0.99653710  0.02806926  0.65159614     1.04510
O1429       O  0.02099662  0.97449695  0.64204100    -0.78090
C1430       C  0.05568566  0.00794762  0.58157884     1.02810
Fe1431     Fe  0.11120213  0.00804933  0.46740703     1.65780
Fe1432     Fe  0.15006870  0.03424503  0.49177962     1.73250
Fe1433     Fe  0.16211575  0.99907046  0.45285980     1.54410
O1434       O  0.14658664  0.97005753  0.45498244    -0.81820
O1435       O  0.16749577  0.04969659  0.47012075    -0.80130
O1436       O  0.11571771  0.97682357  0.47004094    -0.84330
O1437       O  0.11254980  0.00736626  0.43513185    -0.79180
O1438       O  0.18058348  0.99022068  0.47852438    -0.80960
O1439       O  0.12621485  0.05519287  0.48548657    -0.83700
C1440       C  0.12662951  0.00924463  0.42124791     0.97060
C1441       C  0.12937408  0.96421751  0.46333614     1.04500
O1442       O  0.14122913  0.01362860  0.47078087    -1.12690
O1443       O  0.13305453  0.02119974  0.51586256    -0.75120
O1444       O  0.10525699  0.00819116  0.49925714    -0.78600
O1445       O  0.14612618  0.00738840  0.42531998    -0.79290
C1446       C  0.11501835  0.01287838  0.51593944     0.95970
O1447       O  0.10377379  0.03895338  0.46450026    -0.77250
O1448       O  0.17512833  0.01627336  0.50110382    -0.82440
C1449       C  0.17957057  0.04426058  0.45542208     0.98590
C1450       C  0.18450671  0.99969774  0.49561064     1.04510
O1451       O  0.18053678  0.02568454  0.44849417    -0.78090
C1452       C  0.11007025  0.05516780  0.47387148     1.02810
Fe1453     Fe  0.99887720  0.11331975  0.47479879     1.65780
Fe1454     Fe  0.02316778  0.15143232  0.50037946     1.73250
Fe1455     Fe  0.98664411  0.16309182  0.46343453     1.54410
O1456       O  0.98896246  0.14494102  0.43540649    -0.81820
O1457       O  0.00042444  0.16801322  0.51572788    -0.80130
O1458       O  0.00748469  0.11672416  0.44465221    -0.84330
O1459       O  0.96754363  0.11622884  0.46711513    -0.79180
O1460       O  0.01282997  0.17907753  0.45382048    -0.80960
O1461       O  0.01698053  0.12597628  0.52018152    -0.83700
C1462       C  0.95442770  0.13005790  0.47243842     0.97060
C1463       C  0.00019492  0.12889558  0.43087713     1.04500
O1464       O  0.00308527  0.14284770  0.47936521    -1.12690
O1465       O  0.04709478  0.13532358  0.48598006    -0.75120
O1466       O  0.02964872  0.10567191  0.48103102    -0.78600
O1467       O  0.95915060  0.14920112  0.47332270    -0.79290
C1468       C  0.04656597  0.11611810  0.48128186     0.95970
O1469       O  0.99056813  0.10885157  0.50534429    -0.77250
O1470       O  0.03189985  0.17759740  0.48322050    -0.82440
C1471       C  0.98811680  0.18195402  0.50865102     0.98590
C1472       C  0.02786121  0.18526354  0.46524938     1.04510
O1473       O  0.98343059  0.18341508  0.48922545    -0.78090
C1474       C  0.00272479  0.11197741  0.52074730     1.02810
Fe1475     Fe  0.99069705  0.26853821  0.64566895     1.65780
Fe1476     Fe  0.01838067  0.25031642  0.60572091     1.73250
Fe1477     Fe  0.97698138  0.28234328  0.59696581     1.54420
O1478       O  0.94998237  0.27637828  0.61570118    -0.81820
O1479       O  0.03032758  0.27570032  0.59023472    -0.80130
O1480       O  0.96161955  0.25616340  0.64178044    -0.84330
O1481       O  0.97852043  0.29833024  0.64465894    -0.79180
O1482       O  0.97009177  0.25578466  0.57954732    -0.80960
O1483       O  0.03787935  0.25766017  0.63107334    -0.83700
C1484       C  0.98343655  0.31284534  0.63218170     0.97060
C1485       C  0.94680226  0.26362798  0.63087910     1.04500
O1486       O  0.99522859  0.26685487  0.61585487    -1.12690
O1487       O  0.00700756  0.22400075  0.62059664    -0.75120
O1488       O  0.00139892  0.23890288  0.65138479    -0.78600
O1489       O  0.98470083  0.30977918  0.61263730    -0.79290
C1490       C  0.00229681  0.22291642  0.63981663     0.95970
O1491       O  0.02025902  0.28055189  0.65038350    -0.77250
O1492       O  0.00194509  0.24093581  0.57936531    -0.82440
C1493       C  0.02119179  0.28732995  0.57691083     0.98590
C1494       C  0.98325622  0.24256484  0.57246885     1.04510
O1495       O  0.00130089  0.28949011  0.57625198    -0.78090
C1496       C  0.03717121  0.27108064  0.64577904     1.02810
Fe1497     Fe  0.15035275  0.28572956  0.48308504     1.65780
Fe1498     Fe  0.11154679  0.25905820  0.50545946     1.73250
Fe1499     Fe  0.10019778  0.29774104  0.47063849     1.54410
O1500       O  0.11772215  0.32570283  0.47438690    -0.81820
O1501       O  0.09593314  0.24505141  0.48164532    -0.80130
O1502       O  0.14686501  0.31610551  0.49135887    -0.84330
O1503       O  0.14820229  0.29271755  0.45170075    -0.79180
O1504       O  0.08404870  0.30578529  0.49740833    -0.80960
O1505       O  0.13669128  0.23924279  0.49934286    -0.83700
C1506       C  0.13391386  0.29043574  0.43808744     0.97060
C1507       C  0.13419083  0.32996890  0.48507002     1.04500
O1508       O  0.12057227  0.28102055  0.48646047    -1.12690
O1509       O  0.12696376  0.27220649  0.53032607    -0.75120
O1510       O  0.15688395  0.27986660  0.51406724    -0.78600
O1511       O  0.11454407  0.29026220  0.44258803    -0.79290
C1512       C  0.14594484  0.27804780  0.53054814     0.95970
O1513       O  0.15550788  0.25517193  0.47491910    -0.77250
O1514       O  0.08527726  0.27539972  0.51458399    -0.82440
C1515       C  0.08245035  0.25240081  0.46904361     0.98590
C1516       C  0.07837359  0.29384847  0.51221221     1.04510
O1517       O  0.08036835  0.27194552  0.46551169    -0.78090
C1518       C  0.15102494  0.23902906  0.48554861     1.02810
Fe1519     Fe  0.26274037  0.17998022  0.48702149     1.65780
Fe1520     Fe  0.23640173  0.13766488  0.50354589     1.73250
Fe1521     Fe  0.27661521  0.13218317  0.46771822     1.54420
O1522       O  0.27222362  0.15183384  0.44198935    -0.81820
O1523       O  0.25816368  0.11771449  0.51661222    -0.80130
O1524       O  0.26002110  0.18177961  0.45531969    -0.84330
O1525       O  0.29462390  0.17830187  0.48615325    -0.79180
O1526       O  0.25214608  0.11475952  0.45627395    -0.80960
O1527       O  0.24067025  0.15794825  0.52863652    -0.83700
C1528       C  0.30848759  0.16460177  0.48303362     0.97060
C1529       C  0.26404186  0.16987798  0.44004187     1.04500
O1530       O  0.25862033  0.14980633  0.48600703    -1.12690
O1531       O  0.21312952  0.15692832  0.49153286    -0.75120
O1532       O  0.23127296  0.18643463  0.48813104    -0.78600
O1533       O  0.30436395  0.14642889  0.47657525    -0.79290
C1534       C  0.21414193  0.17639962  0.48786006     0.95970
O1535       O  0.26536542  0.18045097  0.51896819    -0.77250
O1536       O  0.22804875  0.11592769  0.48141771    -0.82440
C1537       C  0.27420337  0.10800550  0.50975150     0.98590
C1538       C  0.23483540  0.10918243  0.46408622     1.04510
O1539       O  0.28186150  0.11079284  0.49156173    -0.78090
C1540       C  0.25317252  0.17286868  0.53264151     1.02810
Fe1541     Fe  0.28088619  0.00292231  0.63110086     1.65780
Fe1542     Fe  0.25021574  0.02765513  0.59634849     1.73250
Fe1543     Fe  0.29018387  0.99677112  0.57959161     1.54420
O1544       O  0.31887917  0.99803362  0.59672150    -0.81820
O1545       O  0.23697082  0.00619268  0.57631865    -0.80130
O1546       O  0.31046516  0.01384449  0.62652282    -0.84330
O1547       O  0.28980019  0.97259208  0.62423726    -0.79180
O1548       O  0.29732646  0.02574181  0.56710010    -0.80960
O1549       O  0.23167626  0.01565697  0.62021121    -0.83700
C1550       C  0.28376613  0.96078838  0.60950026     0.97060
C1551       C  0.32393251  0.00810081  0.61325446     1.04500
O1552       O  0.27376323  0.00937609  0.60226179    -1.12690
O1553       O  0.26116508  0.05104389  0.61583517    -0.75120
O1554       O  0.27370985  0.03218850  0.64226193    -0.78600
O1555       O  0.28203336  0.96732966  0.59080738    -0.79290
C1556       C  0.26833656  0.04953017  0.63430535     0.95970
O1557       O  0.25104238  0.99238967  0.63758965    -0.77250
O1558       O  0.26643822  0.04180028  0.57233825    -0.82440
C1559       C  0.24500454  0.99739043  0.56046285     0.98590
C1560       C  0.28466050  0.04087977  0.56422132     1.04510
O1561       O  0.26472557  0.99451700  0.55882403    -0.78090
C1562       C  0.23367575  0.00158479  0.63418025     1.02810
Fe1563     Fe  0.02308152  0.02383542  0.38078155     1.65780
Fe1564     Fe  0.99235956  0.00773044  0.34110234     1.73250
Fe1565     Fe  0.03187822  0.04374616  0.33173836     1.54410
O1566       O  0.02747040  0.06948163  0.35165146    -0.81820
O1567       O  0.01113543  0.99625939  0.31761916    -0.80130
O1568       O  0.02019171  0.05577942  0.38317230    -0.84330
O1569       O  0.05449761  0.02530328  0.37685504    -0.79180
O1570       O  0.00529823  0.05377135  0.31496036    -0.80960
O1571       O  0.00016765  0.98223387  0.35904656    -0.83700
C1572       C  0.06740930  0.02967778  0.36268695     0.97060
C1573       C  0.02194244  0.07125066  0.37078398     1.04500
O1574       O  0.01587187  0.02515506  0.35102291    -1.12690
O1575       O  0.97107217  0.01766566  0.36365083    -0.75120
O1576       O  0.99285334  0.02176291  0.39024650    -0.78600
O1577       O  0.06166416  0.03646663  0.34481246    -0.79290
C1578       C  0.97447851  0.02064956  0.38295237     0.95970
O1579       O  0.02598622  0.99171861  0.38052506    -0.77250
O1580       O  0.98067289  0.03018906  0.32205692    -0.82440
C1581       C  0.02687918  0.00238957  0.30698749     0.98590
C1582       C  0.98681974  0.04650043  0.31285696     1.04510
O1583       O  0.03639556  0.01965509  0.31018793    -0.78090
C1584       C  0.01381022  0.97802537  0.37282574     1.02810
Fe1585     Fe  0.34647815  0.26837243  0.50102527     1.65780
Fe1586     Fe  0.38640477  0.29541136  0.48002757     1.73250
Fe1587     Fe  0.39659817  0.25628585  0.51571615     1.54420
O1588       O  0.37833173  0.25793487  0.54290520    -0.81820
O1589       O  0.40554665  0.27431234  0.46537977    -0.80130
O1590       O  0.34746086  0.27107910  0.53265199    -0.84330
O1591       O  0.34961365  0.23655012  0.50217555    -0.79180
O1592       O  0.41268984  0.28177793  0.52660886    -0.80960
O1593       O  0.36398061  0.29015214  0.45693424    -0.83700
C1594       C  0.36449832  0.22347163  0.50274721     0.97060
C1595       C  0.36031955  0.26566351  0.54674102     1.04500
O1596       O  0.37658197  0.27338839  0.49904817    -1.12690
O1597       O  0.36769734  0.31820289  0.49317539    -0.75120
O1598       O  0.33900068  0.29960135  0.50020566    -0.78600
O1599       O  0.38333983  0.22840936  0.50651050    -0.79290
C1600       C  0.34860302  0.31688703  0.49864323     0.95970
O1601       O  0.34287280  0.26548290  0.46930072    -0.77250
O1602       O  0.40998094  0.30437994  0.50013348    -0.82440
C1603       C  0.41751321  0.25983926  0.47197271     0.98590
C1604       C  0.41756024  0.29867203  0.51759122     1.04510
O1605       O  0.41724807  0.25304447  0.49070576    -0.78090
C1606       C  0.34900942  0.27727758  0.45459691     1.02810
Fe1607     Fe  0.23681428  0.37547923  0.50215003     1.65780
Fe1608     Fe  0.26173997  0.41671000  0.48136687     1.73250
Fe1609     Fe  0.22386356  0.42386437  0.51851037     1.54420
O1610       O  0.19645551  0.40516766  0.51527919    -0.81820
O1611       O  0.27551519  0.43344126  0.50491650    -0.80130
O1612       O  0.20595316  0.37860315  0.49484929    -0.84330
O1613       O  0.23057841  0.37508182  0.53381767    -0.79180
O1614       O  0.21368747  0.44145684  0.49299470    -0.80960
O1615       O  0.28344661  0.39307544  0.48730733    -0.83700
C1616       C  0.23402547  0.38803036  0.54835978     0.97060
C1617       C  0.19201106  0.38967960  0.50344031     1.04500
O1618       O  0.24072308  0.40552752  0.50054058    -1.12690
O1619       O  0.24984488  0.40093001  0.45578909    -0.75120
O1620       O  0.24191988  0.37063613  0.47082988    -0.78600
O1621       O  0.23391526  0.40767842  0.54525313    -0.79290
C1622       C  0.24432424  0.38196075  0.45475054     0.95970
O1623       O  0.26785246  0.37086225  0.50917132    -0.77250
O1624       O  0.24263471  0.44146679  0.47308531    -0.82440
C1625       C  0.26775659  0.44577632  0.51831606     0.98590
C1626       C  0.22425045  0.44793575  0.47735236     1.04510
O1627       O  0.24844316  0.44525819  0.52356257    -0.78090
C1628       C  0.28406043  0.37753800  0.49975287     1.02810
Fe1629     Fe  0.23833951  0.27431149  0.39608563     1.65780
Fe1630     Fe  0.26140988  0.29679115  0.35447874     1.73250
Fe1631     Fe  0.22480427  0.25789752  0.34728379     1.54410
O1632       O  0.22861864  0.23160687  0.36642825    -0.81820
O1633       O  0.23843281  0.30880902  0.33544158    -0.80130
O1634       O  0.24441324  0.24319996  0.39534920    -0.84330
O1635       O  0.20643971  0.27000562  0.39472204    -0.79180
O1636       O  0.25084891  0.24802534  0.33097571    -0.80960
O1637       O  0.25433798  0.32000407  0.37609926    -0.83700
C1638       C  0.19265922  0.26994992  0.38043934     0.97060
C1639       C  0.23873279  0.22859685  0.38334539     1.04500
O1640       O  0.24159454  0.27626852  0.36584734    -1.12690
O1641       O  0.28631754  0.28670456  0.37271518    -0.75120
O1642       O  0.26976571  0.27827203  0.40218060    -0.78600
O1643       O  0.19688549  0.26668461  0.36136578    -0.79290
C1644       C  0.28642131  0.28131432  0.39180918     0.95970
O1645       O  0.23244298  0.30560906  0.39905060    -0.77250
O1646       O  0.27141908  0.27633434  0.33166592    -0.82440
C1647       C  0.22463187  0.30034082  0.32389729     0.98590
C1648       C  0.26702242  0.25806395  0.32527068     1.04510
O1649       O  0.21938135  0.28126143  0.32542580    -0.78090
C1650       C  0.24203232  0.32132873  0.39167024     1.02810
Fe1651     Fe  0.50434962  0.28463516  0.33999591     1.65780
Fe1652     Fe  0.48138935  0.30011525  0.38389039     1.73250
Fe1653     Fe  0.51775414  0.26053247  0.38554911     1.54420
O1654       O  0.51210296  0.23660023  0.36301919    -0.81820
O1655       O  0.50550927  0.31151869  0.40150984    -0.80130
O1656       O  0.49918966  0.25384607  0.33549483    -0.84330
O1657       O  0.53613696  0.28061637  0.34025236    -0.79180
O1658       O  0.49184885  0.24944290  0.40156932    -0.80960
O1659       O  0.48447926  0.32510919  0.36320527    -0.83700
C1660       C  0.55021609  0.27578099  0.35333714     0.97060
C1661       C  0.50343812  0.23692949  0.34488609     1.04500
O1662       O  0.50120096  0.28141601  0.36989956    -1.12690
O1663       O  0.45651264  0.28899485  0.36664756    -0.75120
O1664       O  0.47230916  0.28896386  0.33548033    -0.78600
O1665       O  0.54611430  0.26894541  0.37154064    -0.79290
C1666       C  0.45599177  0.28749520  0.34687880     0.95970
O1667       O  0.51044837  0.31573982  0.34248987    -0.77250
O1668       O  0.47408838  0.27889609  0.40675418    -0.82440
C1669       C  0.51926411  0.30196192  0.41235318     0.98590
C1670       C  0.47742116  0.25976143  0.41038173     1.04510
O1671       O  0.52407764  0.28266173  0.40954905    -0.78090
C1672       C  0.49785957  0.32932712  0.34918177     1.02810
Fe1673     Fe  0.50690566  0.42887790  0.51053222     1.65780
Fe1674     Fe  0.48416327  0.39020476  0.48482169     1.73250
Fe1675     Fe  0.52247500  0.37973374  0.52066320     1.54410
O1676       O  0.54907072  0.39950277  0.51691695    -0.81820
O1677       O  0.47092708  0.37121393  0.50679513    -0.80130
O1678       O  0.53710604  0.42797619  0.50018233    -0.84330
O1679       O  0.51709963  0.42600102  0.54090563    -0.79180
O1680       O  0.53189592  0.36391800  0.49384512    -0.80960
O1681       O  0.46242259  0.41315695  0.49325050    -0.83700
C1682       C  0.51254935  0.41194029  0.55395141     0.97060
C1683       C  0.55198560  0.41605569  0.50590778     1.04500
O1684       O  0.50474893  0.39926431  0.50513659    -1.12690
O1685       O  0.49649784  0.40912062  0.46149724    -0.75120
O1686       O  0.49742206  0.43735677  0.48115771    -0.78600
O1687       O  0.51281059  0.39281579  0.54897381    -0.79290
C1688       C  0.49814973  0.42875679  0.46341328     0.95970
O1689       O  0.47617390  0.43010996  0.52035429    -0.77250
O1690       O  0.50299783  0.36624314  0.47403871    -0.82440
C1691       C  0.47872544  0.35866151  0.52010117     0.98590
C1692       C  0.52103869  0.35867784  0.47796049     1.04510
O1693       O  0.49810903  0.35844650  0.52508074    -0.78090
C1694       C  0.46073801  0.42603184  0.50835410     1.02810
Fe1695     Fe  0.39987669  0.02793158  0.99459942     1.65780
Fe1696     Fe  0.36032706  0.00281517  0.97042645     1.73250
Fe1697     Fe  0.34932160  0.04062039  0.00701169     1.54410
O1698       O  0.36620050  0.03652448  0.03555903    -0.81820
O1699       O  0.34315183  0.02486058  0.95533238    -0.80130
O1700       O  0.39780508  0.02458719  0.02626084    -0.84330
O1701       O  0.39791720  0.05984900  0.99565185    -0.79180
O1702       O  0.33114533  0.01492103  0.01544533    -0.80960
O1703       O  0.38393460  0.00814177  0.94885769    -0.83700
C1704       C  0.38341324  0.07333472  0.99596505     0.97060
C1705       C  0.38429181  0.02892993  0.04005982     1.04500
O1706       O  0.36972037  0.02374146  0.99090234    -1.12690
O1707       O  0.37707443  0.97918283  0.98423327    -0.75120
O1708       O  0.40595329  0.99645665  0.99373167    -0.78600
O1709       O  0.36440736  0.06874198  0.99985865    -0.79290
C1710       C  0.39562570  0.97968293  0.99132717     0.95970
O1711       O  0.40484986  0.03170860  0.96325704    -0.77250
O1712       O  0.33512814  0.99383188  0.98807183    -0.82440
C1713       C  0.33119469  0.03947483  0.96132533     0.98590
C1714       C  0.32634966  0.99869395  0.00510571     1.04510
O1715       O  0.33042118  0.04585879  0.98028173    -0.78090
C1716       C  0.39875683  0.02124779  0.94764752     1.02810
Fe1717     Fe  0.39891657  0.27121408  0.23781416     1.65780
Fe1718     Fe  0.35602001  0.29378557  0.25834891     1.73250
Fe1719     Fe  0.35043463  0.25512962  0.22141662     1.54410
O1720       O  0.36925980  0.25922641  0.19464161    -0.81820
O1721       O  0.33923629  0.27053725  0.27224416    -0.80130
O1722       O  0.39891502  0.27405655  0.20601919    -0.84330
O1723       O  0.39903613  0.23922622  0.23653641    -0.79180
O1724       O  0.33190896  0.27982225  0.21094147    -0.80960
O1725       O  0.37848584  0.29058630  0.28160548    -0.83700
C1726       C  0.38571893  0.22469476  0.23454193     0.97060
C1727       C  0.38704458  0.26784795  0.19141467     1.04500
O1728       O  0.36838479  0.27337272  0.23900256    -1.12690
O1729       O  0.37225069  0.31854168  0.24575213    -0.75120
O1730       O  0.40286952  0.30306815  0.23891515    -0.78600
O1731       O  0.36658590  0.22798498  0.22988986    -0.79290
C1732       C  0.39140934  0.31920656  0.24048591     0.95970
O1733       O  0.40205402  0.26816041  0.26964261    -0.77250
O1734       O  0.33160085  0.30092660  0.23860139    -0.82440
C1735       C  0.32834095  0.25560939  0.26501250     0.98590
C1736       C  0.32501318  0.29565005  0.22069054     1.04510
O1737       O  0.32955005  0.24931300  0.24611319    -0.78090
C1738       C  0.39450258  0.27915537  0.28422841     1.02810
Fe1739     Fe  0.50038752  0.37580824  0.23701520     1.65780
Fe1740     Fe  0.47716080  0.41928933  0.25420930     1.73250
Fe1741     Fe  0.51757208  0.42256246  0.21973670     1.54410
O1742       O  0.54340537  0.40207279  0.22446502    -0.81820
O1743       O  0.46541671  0.43377596  0.22843084    -0.80130
O1744       O  0.53128024  0.37687816  0.24530185    -0.84330
O1745       O  0.50732830  0.37409795  0.20539466    -0.79180
O1746       O  0.52756633  0.43933637  0.24565957    -0.80960
O1747       O  0.45465915  0.39620007  0.24987479    -0.83700
C1748       C  0.50633808  0.38700462  0.19029944     0.97060
C1749       C  0.54634556  0.38661891  0.23686648     1.04500
O1750       O  0.49854685  0.40593025  0.23711917    -1.12690
O1751       O  0.48754316  0.40520984  0.28113873    -0.75120
O1752       O  0.49373932  0.37330449  0.26863148    -0.78600
O1753       O  0.50805356  0.40664579  0.19287341    -0.79290
C1754       C  0.49150791  0.38601228  0.28371268     0.95970
O1755       O  0.46945932  0.37294856  0.22882772    -0.77250
O1756       O  0.49653514  0.44426219  0.26123071    -0.82440
C1757       C  0.47477618  0.44626730  0.21625636     0.98590
C1758       C  0.51603444  0.44805594  0.25933080     1.04510
O1759       O  0.49458937  0.44552714  0.21320029    -0.78090
C1760       C  0.45348041  0.38053643  0.23779213     1.02810
Fe1761     Fe  0.40153412  0.53714087  0.50466513     1.65780
Fe1762     Fe  0.36141246  0.51150584  0.48165621     1.73250
Fe1763     Fe  0.35118793  0.55074547  0.51717094     1.54420
O1764       O  0.36870469  0.54734190  0.54543298    -0.81820
O1765       O  0.34168166  0.53229223  0.46680256    -0.80130
O1766       O  0.39955264  0.53351511  0.53613049    -0.84330
O1767       O  0.40007038  0.56889271  0.50680598    -0.79180
O1768       O  0.33297309  0.52531197  0.52666382    -0.80960
O1769       O  0.38397183  0.51801900  0.45906801    -0.83700
C1770       C  0.38613691  0.58289225  0.50689087     0.97060
C1771       C  0.38648838  0.53903883  0.54990090     1.04500
O1772       O  0.37119079  0.53317614  0.50120814    -1.12690
O1773       O  0.37989713  0.48818117  0.49480441    -0.75120
O1774       O  0.40846988  0.50601181  0.50346602    -0.78600
O1775       O  0.36668994  0.57877279  0.50915246    -0.79290
C1776       C  0.39862599  0.48899323  0.50152251     0.95970
O1777       O  0.40600103  0.54089401  0.47326737    -0.77250
O1778       O  0.33777162  0.50194730  0.50124958    -0.82440
C1779       C  0.32991788  0.54718108  0.47275016     0.98590
C1780       C  0.32884714  0.50797424  0.51788214     1.04510
O1781       O  0.33114220  0.55516911  0.49106331    -0.78090
C1782       C  0.39931650  0.53064435  0.45771177     1.02810
Fe1783     Fe  0.50807306  0.53306562  0.39672490     1.65780
Fe1784     Fe  0.48379270  0.50912792  0.35724943     1.73250
Fe1785     Fe  0.51930080  0.54789831  0.34766743     1.54410
O1786       O  0.51658961  0.57463305  0.36743953    -0.81820
O1787       O  0.50690284  0.49565492  0.33953746    -0.80130
O1788       O  0.49949360  0.56349196  0.39588975    -0.84330
O1789       O  0.53948723  0.54070670  0.39473267    -0.79180
O1790       O  0.49203461  0.55740398  0.33213247    -0.80960
O1791       O  0.49020165  0.48793547  0.38143129    -0.83700
C1792       C  0.55289776  0.53786214  0.38045331     0.97060
C1793       C  0.50636094  0.57805340  0.38439121     1.04500
O1794       O  0.50344032  0.53036447  0.36699929    -1.12690
O1795       O  0.45949773  0.52167114  0.37444788    -0.75120
O1796       O  0.47728377  0.52630362  0.40405844    -0.78600
O1797       O  0.54788669  0.53841667  0.36118096    -0.79290
C1798       C  0.46019560  0.52571742  0.39383930     0.95970
O1799       O  0.51684718  0.50255817  0.39826596    -0.77250
O1800       O  0.47400987  0.52739881  0.33235781    -0.82440
C1801       C  0.51864128  0.50411359  0.32587212     0.98590
C1802       C  0.47682399  0.54600471  0.32593700     1.04510
O1803       O  0.52298770  0.52360724  0.32589773    -0.78090
C1804       C  0.50431169  0.48750223  0.39551310     1.02810
Fe1805     Fe  0.23352779  0.42832468  0.23383477     1.65780
Fe1806     Fe  0.25927596  0.38757604  0.25426682     1.73250
Fe1807     Fe  0.22067920  0.37980243  0.21826848     1.54410
O1808       O  0.19338028  0.39862218  0.22115519    -0.81820
O1809       O  0.27261864  0.37108007  0.23036028    -0.80130
O1810       O  0.20308300  0.42455649  0.24222880    -0.84330
O1811       O  0.22624610  0.42777863  0.20223148    -0.79180
O1812       O  0.21046286  0.36337793  0.24409672    -0.80960
O1813       O  0.28051396  0.41141995  0.24789623    -0.83700
C1814       C  0.23154650  0.41473203  0.18831940     0.97060
C1815       C  0.18905680  0.41325799  0.23403606     1.04500
O1816       O  0.23775478  0.39843069  0.23568929    -1.12690
O1817       O  0.24794550  0.40333060  0.28000636    -0.75120
O1818       O  0.23963629  0.43361285  0.26503991    -0.78600
O1819       O  0.23141894  0.39517664  0.19167260    -0.79290
C1820       C  0.24266466  0.42236041  0.28110471     0.95970
O1821       O  0.26433842  0.43325717  0.22599827    -0.77250
O1822       O  0.24032184  0.36280798  0.26279141    -0.82440
C1823       C  0.26437269  0.35783244  0.21818412     0.98590
C1824       C  0.22154353  0.35689070  0.25933201     1.04510
O1825       O  0.24483084  0.35787990  0.21386555    -0.78090
C1826       C  0.28075026  0.42689720  0.23537154     1.02810
Fe1827     Fe  0.00213497  0.41415588  0.99166144     1.65780
Fe1828     Fe  0.97741636  0.37277248  0.97052990     1.73250
Fe1829     Fe  0.01536672  0.36544745  0.00791974     1.54410
O1830       O  0.04322647  0.38281865  0.00397995    -0.81820
O1831       O  0.96284763  0.35748182  0.99482088    -0.80130
O1832       O  0.03363214  0.41156445  0.98668191    -0.84330
O1833       O  0.00541586  0.41459021  0.02378771    -0.79180
O1834       O  0.02465066  0.34704878  0.98285260    -0.80960
O1835       O  0.95639253  0.39740823  0.97343220    -0.83700
C1836       C  0.00463503  0.40108999  0.03830142     0.97060
C1837       C  0.04758343  0.39926635  0.99354606     1.04500
O1838       O  0.99845413  0.38404962  0.98994096    -1.12690
O1839       O  0.99045239  0.38782108  0.94477204    -0.75120
O1840       O  0.99907557  0.41805612  0.95987463    -0.78600
O1841       O  0.00693314  0.38165166  0.03498056    -0.79290
C1842       C  0.99606283  0.40688531  0.94378131     0.95970
O1843       O  0.97075908  0.41934020  0.99622619    -0.77250
O1844       O  0.99500810  0.34637309  0.96419198    -0.82440
C1845       C  0.97066072  0.34517534  0.00840944     0.98590
C1846       C  0.01299989  0.33913275  0.96879867     1.04510
O1847       O  0.99004543  0.34543252  0.01345882    -0.78090
C1848       C  0.95582811  0.41386887  0.98437892     1.02810
Fe1849     Fe  0.34191472  0.53660306  0.23367538     1.65780
Fe1850     Fe  0.38250293  0.51047882  0.25569984     1.73250
Fe1851     Fe  0.39215844  0.55064657  0.22062230     1.54420
O1852       O  0.37525836  0.54633958  0.19242648    -0.81820
O1853       O  0.40300259  0.53079994  0.26980179    -0.80130
O1854       O  0.34367868  0.53433654  0.20195154    -0.84330
O1855       O  0.34340244  0.56830410  0.23306734    -0.79180
O1856       O  0.41113968  0.52592786  0.21161570    -0.80960
O1857       O  0.36104209  0.51716330  0.27917077    -0.83700
C1858       C  0.35717629  0.58235791  0.23160886     0.97060
C1859       C  0.35719450  0.53871646  0.18812895     1.04500
O1860       O  0.37233779  0.53261682  0.23665252    -1.12690
O1861       O  0.36315551  0.48739543  0.24372342    -0.75120
O1862       O  0.33514138  0.50549276  0.23380376    -0.78600
O1863       O  0.37632304  0.57844417  0.22769038    -0.79290
C1864       C  0.34453340  0.48837782  0.23678893     0.95970
O1865       O  0.33754649  0.53888053  0.26527533    -0.77250
O1866       O  0.40512950  0.50072344  0.23502310    -0.82440
C1867       C  0.41343144  0.54689946  0.26460475     0.98590
C1868       C  0.41462422  0.50790818  0.21914497     1.04510
O1869       O  0.41143591  0.55590290  0.24684901    -0.78090
C1870       C  0.34514959  0.52903341  0.28074967     1.02810
Fe1871     Fe  0.23536154  0.52963146  0.33918741     1.65780
Fe1872     Fe  0.25969753  0.50854522  0.38106005     1.73250
Fe1873     Fe  0.22371160  0.54805002  0.38796112     1.54410
O1874       O  0.22758627  0.57412467  0.36769057    -0.81820
O1875       O  0.23679271  0.49645167  0.40007330    -0.80130
O1876       O  0.23944378  0.56111913  0.33754618    -0.84330
O1877       O  0.20346255  0.53255050  0.34107695    -0.79180
O1878       O  0.25065868  0.55742246  0.40461746    -0.80960
O1879       O  0.25360632  0.48501648  0.35957968    -0.83700
C1880       C  0.18986257  0.53542224  0.35516111     0.97060
C1881       C  0.23452362  0.57637479  0.34903113     1.04500
O1882       O  0.23962124  0.52895801  0.36948535    -1.12690
O1883       O  0.28406130  0.51941614  0.36278739    -0.75120
O1884       O  0.26692460  0.52695992  0.33324108    -0.78600
O1885       O  0.19469772  0.54033363  0.37389892    -0.79290
C1886       C  0.28374716  0.52486437  0.34369747     0.95970
O1887       O  0.23048109  0.49813847  0.33725135    -0.77250
O1888       O  0.26979407  0.52827494  0.40431572    -0.82440
C1889       C  0.22357141  0.50523717  0.41205205     0.98590
C1890       C  0.26628939  0.54659319  0.41087601     1.04510
O1891       O  0.21833616  0.52444024  0.41028911    -0.78090
C1892       C  0.24104403  0.48299428  0.34433933     1.02810
Fe1893     Fe  0.85660213  0.51450182  0.72474260     1.65780
Fe1894     Fe  0.89768911  0.50263810  0.75444353     1.73250
Fe1895     Fe  0.90331535  0.53342826  0.71177544     1.54420
O1896       O  0.88420565  0.52707028  0.68540112    -0.81820
O1897       O  0.91088363  0.53005265  0.76412908    -0.80130
O1898       O  0.86352245  0.50141711  0.69653814    -0.84330
O1899       O  0.85633918  0.54380878  0.71126244    -0.79180
O1900       O  0.92082120  0.50686890  0.70479277    -0.80960
O1901       O  0.87223871  0.50972203  0.77332946    -0.83700
C1902       C  0.86538020  0.55978528  0.71865370     0.97060
C1903       C  0.87153958  0.51198295  0.68181941     1.04500
O1904       O  0.88605914  0.51645619  0.73039822    -1.12690
O1905       O  0.88479778  0.47397777  0.74681985    -0.75120
O1906       O  0.85318604  0.48484479  0.73672781    -0.78600
O1907       O  0.88535435  0.55990238  0.72027375    -0.79290
C1908       C  0.86572535  0.47051602  0.74231501     0.95970
O1909       O  0.84939113  0.52724118  0.75339257    -0.77250
O1910       O  0.92405290  0.49419201  0.73751278    -0.82440
C1911       C  0.92485123  0.54027801  0.75451920     0.98590
C1912       C  0.92834864  0.49385067  0.71803349     1.04510
O1913       O  0.92540794  0.54128057  0.73467664    -0.78090
C1914       C  0.85583891  0.52092422  0.77117056     1.02810
Fe1915     Fe  0.52864225  0.87485329  0.73093157     1.65780
Fe1916     Fe  0.50380172  0.91480240  0.75455159     1.73250
Fe1917     Fe  0.54339935  0.92516237  0.71963252     1.54420
O1918       O  0.57117100  0.90790847  0.72491491    -0.81820
O1919       O  0.49059277  0.93242930  0.73132167    -0.80130
O1920       O  0.56030952  0.87643472  0.73525383    -0.84330
O1921       O  0.53097850  0.87748736  0.69910084    -0.79180
O1922       O  0.55103248  0.94209954  0.74626409    -0.80960
O1923       O  0.48210866  0.89165355  0.74854668    -0.83700
C1924       C  0.53283464  0.89215959  0.68591834     0.97060
C1925       C  0.57468911  0.88969341  0.73225915     1.04500
O1926       O  0.52538734  0.90497146  0.73501977    -1.12690
O1927       O  0.51577938  0.89748820  0.77908628    -0.75120
O1928       O  0.52668692  0.86887377  0.76238485    -0.78600
O1929       O  0.53722643  0.91084920  0.69097085    -0.79290
C1930       C  0.52298935  0.87899273  0.77902320     0.95970
O1931       O  0.49701140  0.86921302  0.72673943    -0.77250
O1932       O  0.52150372  0.93937540  0.76465804    -0.82440
C1933       C  0.49844405  0.94472500  0.71781229     0.98590
C1934       C  0.53950240  0.94710736  0.76161177     1.04510
O1935       O  0.51796453  0.94505296  0.71327027    -0.78090
C1936       C  0.48142998  0.87551349  0.73724643     1.02810
Fe1937     Fe  0.24950468  0.92179655  0.70916356     1.65780
Fe1938     Fe  0.27249173  0.88488652  0.73858650     1.73250
Fe1939     Fe  0.24150056  0.87072343  0.69766959     1.54420
O1940       O  0.21236050  0.88250433  0.70512208    -0.81820
O1941       O  0.28524988  0.86016900  0.72220181    -0.80130
O1942       O  0.21818490  0.91667056  0.70166565    -0.84330
O1943       O  0.25904041  0.91807915  0.67920609    -0.79180
O1944       O  0.23735109  0.84986827  0.72260639    -0.80960
O1945       O  0.29728762  0.90276360  0.72817147    -0.83700
C1946       C  0.25437497  0.90479037  0.66542491     0.97060
C1947       C  0.20614910  0.90129078  0.70553216     1.04500
O1948       O  0.25472407  0.89246229  0.71503029    -1.12690
O1949       O  0.26245553  0.90915107  0.75782359    -0.75120
O1950       O  0.24005914  0.92817772  0.73918725    -0.78600
O1951       O  0.24433170  0.88804684  0.66958412    -0.79290
C1952       C  0.24918433  0.92393386  0.75631594     0.95970
O1953       O  0.28020782  0.93048334  0.71564546    -0.77250
O1954       O  0.24904228  0.86656770  0.75084016    -0.82440
C1955       C  0.28448063  0.85299844  0.70365287     0.98590
C1956       C  0.23889984  0.85176667  0.74236446     1.04510
O1957       O  0.26996767  0.85736413  0.69075065    -0.78090
C1958       C  0.29708549  0.92126199  0.72105028     1.02810
Fe1959     Fe  0.90406496  0.23754055  0.73389346     1.65780
Fe1960     Fe  0.86573921  0.26077833  0.76050938     1.73250
Fe1961     Fe  0.85412399  0.22694980  0.72125403     1.54410
O1962       O  0.87315403  0.23056298  0.69409002    -0.81820
O1963       O  0.84637657  0.23860236  0.77339277    -0.80130
O1964       O  0.90087762  0.24931753  0.70455156    -0.84330
O1965       O  0.90075474  0.20760264  0.72255459    -0.79180
O1966       O  0.83858715  0.25468718  0.71300261    -0.80960
O1967       O  0.88924082  0.25039426  0.78058570    -0.83700
C1968       C  0.88769602  0.19390446  0.72823528     0.97060
C1969       C  0.88905030  0.24228428  0.69025964     1.04500
O1970       O  0.87432117  0.24198037  0.73849548    -1.12690
O1971       O  0.88421667  0.28491694  0.74910607    -0.75120
O1972       O  0.91319760  0.26674333  0.74371104    -0.78600
O1973       O  0.86829024  0.19836896  0.73011453    -0.79290
C1974       C  0.90360003  0.28400288  0.74479081     0.95970
O1975       O  0.90747036  0.22599407  0.76361378    -0.77250
O1976       O  0.84162146  0.27293989  0.74276151    -0.82440
C1977       C  0.83249877  0.22706198  0.76506513     0.98590
C1978       C  0.83418942  0.27043269  0.72446941     1.04510
O1979       O  0.83255786  0.22255061  0.74564963    -0.78090
C1980       C  0.90270038  0.23563674  0.78029824     1.02810
Fe1981     Fe  0.09920545  0.26782416  0.75824469     1.65780
Fe1982     Fe  0.13937660  0.24905320  0.72920988     1.73250
Fe1983     Fe  0.14975529  0.28110473  0.77149699     1.54410
O1984       O  0.13364615  0.30919277  0.76759401    -0.81820
O1985       O  0.16245450  0.23572790  0.74732538    -0.80130
O1986       O  0.10046390  0.29948319  0.76153559    -0.84330
O1987       O  0.10230979  0.26257987  0.78947017    -0.79180
O1988       O  0.16905019  0.29057366  0.74705886    -0.80960
O1989       O  0.12068624  0.22357082  0.73604440    -0.83700
C1990       C  0.11598816  0.26586909  0.80335929     0.97060
C1991       C  0.11452370  0.31330771  0.76359156     1.04500
O1992       O  0.12952662  0.26592446  0.75303916    -1.12690
O1993       O  0.11738959  0.26027734  0.70801833    -0.75120
O1994       O  0.09165968  0.27311511  0.72750997    -0.78600
O1995       O  0.13391545  0.27363213  0.79932993    -0.79290
C1996       C  0.09965220  0.26910424  0.70986660     0.95970
O1997       O  0.09456137  0.23635529  0.75520766    -0.77250
O1998       O  0.15907065  0.27220032  0.71917510    -0.82440
C1999       C  0.17175752  0.23897826  0.76460656     0.98590
C2000       C  0.17012795  0.28620772  0.72774678     1.04510
O2001       O  0.16822446  0.25477137  0.77611496    -0.78090
C2002       C  0.10370114  0.22134224  0.74610705     1.02810
Fe2003     Fe  0.99589945  0.15846887  0.74670414     1.65780
Fe2004     Fe  0.02074895  0.12099102  0.71974239     1.73250
Fe2005     Fe  0.98691241  0.10755249  0.75889355     1.54410
O2006       O  0.98954573  0.12484279  0.78694361    -0.81820
O2007       O  0.99811793  0.10300272  0.70612593    -0.80130
O2008       O  0.00320089  0.15557615  0.77762671    -0.84330
O2009       O  0.96423177  0.15464419  0.75208637    -0.79180
O2010       O  0.01512511  0.09251378  0.76661861    -0.80960
O2011       O  0.01249857  0.14468892  0.69961047    -0.83700
C2012       C  0.95151442  0.13954023  0.75026999     0.97060
C2013       C  0.99839537  0.14218680  0.79138574     1.04500
O2014       O  0.00131193  0.12892686  0.74197379    -1.12690
O2015       O  0.04486787  0.13866807  0.73186446    -0.75120
O2016       O  0.02679905  0.16660652  0.74219904    -0.78600
O2017       O  0.95741061  0.12050388  0.75127891    -0.79290
C2018       C  0.04397508  0.15718830  0.73875306     0.95970
O2019       O  0.98850007  0.16376967  0.71582374    -0.77250
O2020       O  0.03221392  0.09613398  0.73634446    -0.82440
C2021       C  0.98783020  0.08812918  0.71423019     0.98590
C2022       C  0.03030032  0.08811434  0.75437617     1.04510
O2023       O  0.98359118  0.08710267  0.73367203    -0.78090
C2024       C  0.99872383  0.15892557  0.69954536     1.02810
Fe2025     Fe  0.26722732  0.11189344  0.74538242     1.65780
Fe2026     Fe  0.24121797  0.14861631  0.71967491     1.73250
Fe2027     Fe  0.27994621  0.16147233  0.75458379     1.54420
O2028       O  0.27795510  0.14398862  0.78260204    -0.81820
O2029       O  0.26121846  0.16889165  0.70440401    -0.80130
O2030       O  0.25659076  0.11734266  0.77471847    -0.84330
O2031       O  0.29700294  0.11712533  0.75622215    -0.79180
O2032       O  0.25354143  0.17750695  0.76487025    -0.80960
O2033       O  0.25053750  0.12500101  0.69908024    -0.83700
C2034       C  0.31048183  0.12735730  0.74622479     0.97060
C2035       C  0.26445126  0.13007560  0.78776999     1.04500
O2036       O  0.26261640  0.14108132  0.73961626    -1.12690
O2037       O  0.21861627  0.12958149  0.73347316    -0.75120
O2038       O  0.23816242  0.10142557  0.73718967    -0.78600
O2039       O  0.30755317  0.14675961  0.74352175    -0.79290
C2040       C  0.22053833  0.11031262  0.73751190     0.95970
O2041       O  0.27655864  0.10735065  0.71480103    -0.77250
O2042       O  0.23043811  0.17203952  0.73885452    -0.82440
C2043       C  0.27465653  0.18206150  0.71095339     0.98590
C2044       C  0.23577484  0.18042747  0.75610973     1.04510
O2045       O  0.28227765  0.18154963  0.72932188    -0.78090
C2046       C  0.26527236  0.11140699  0.69873650     1.02810
Fe2047     Fe  0.16593070  0.99617771  0.74448364     1.65780
Fe2048     Fe  0.12934748  0.01874934  0.71469301     1.73250
Fe2049     Fe  0.11483417  0.98361194  0.75213801     1.54410
O2050       O  0.13314949  0.95605590  0.75065832    -0.81820
O2051       O  0.10778945  0.03360166  0.73341879    -0.80130
O2052       O  0.16383488  0.96582444  0.73645144    -0.84330
O2053       O  0.16041216  0.98872055  0.77526985    -0.79180
O2054       O  0.10040476  0.97318926  0.72519558    -0.80960
O2055       O  0.15136537  0.04062751  0.72435257    -0.83700
C2056       C  0.14541885  0.99428886  0.78682462     0.97060
C2057       C  0.15011374  0.95213122  0.74066051     1.04500
O2058       O  0.13643557  0.99945461  0.73697945    -1.12690
O2059       O  0.15020030  0.00530398  0.69386604    -0.75120
O2060       O  0.17751038  0.00192480  0.71497997    -0.78600
O2061       O  0.12661991  0.99413468  0.78047388    -0.79290
C2062       C  0.16955927  0.00183240  0.69683054     0.95970
O2063       O  0.16831635  0.02735532  0.75192448    -0.77250
O2064       O  0.10697491  0.99913503  0.70270842    -0.82440
C2065       C  0.09464675  0.02760253  0.74712940     0.98590
C2066       C  0.09815704  0.98202442  0.70755558     1.04510
O2067       O  0.09423863  0.00896400  0.75417367    -0.78090
C2068       C  0.16372686  0.04260804  0.73990982     1.02810
Fe2069     Fe  0.36086439  0.02758050  0.71308021     1.65780
Fe2070     Fe  0.39692016  0.00601352  0.74337361     1.73250
Fe2071     Fe  0.41013940  0.04405253  0.70799964     1.54410
O2072       O  0.39489611  0.03941645  0.67821651    -0.81820
O2073       O  0.41360723  0.02827181  0.75955031    -0.80130
O2074       O  0.36948791  0.01607968  0.68482376    -0.84330
O2075       O  0.36526177  0.05685991  0.70099572    -0.79180
O2076       O  0.42970778  0.01916198  0.70074448    -0.80960
O2077       O  0.37042464  0.01426031  0.76102370    -0.83700
C2078       C  0.37275421  0.07138657  0.71173377     0.97060
C2079       C  0.38126636  0.02579519  0.67209385     1.04500
O2080       O  0.38980146  0.02555415  0.72163266    -1.12690
O2081       O  0.38108092  0.98130720  0.72918034    -0.75120
O2082       O  0.35182552  0.99838808  0.72218978    -0.78600
O2083       O  0.39201419  0.07043157  0.71658431    -0.79290
C2084       C  0.36190135  0.98152900  0.72387874     0.95970
O2085       O  0.35273959  0.03826179  0.74249206    -0.77250
O2086       O  0.42348837  0.99683192  0.72727225    -0.82440
C2087       C  0.42629482  0.04261436  0.75415244     0.98590
C2088       C  0.43362152  0.00249546  0.71101198     1.04510
O2089       O  0.42770369  0.04923904  0.73535656    -0.78090
C2090       C  0.35597007  0.02810618  0.75946066     1.02810
Fe2091     Fe  0.00933286  0.35126267  0.73789354     1.65780
Fe2092     Fe  0.02247701  0.40022705  0.72467907     1.73250
Fe2093     Fe  0.98288723  0.39096535  0.75933225     1.54420
O2094       O  0.96197326  0.36679396  0.75151015    -0.81820
O2095       O  0.03186541  0.41583743  0.75102508    -0.80130
O2096       O  0.97894496  0.34682126  0.72856683    -0.84330
O2097       O  0.00150558  0.34411833  0.76836418    -0.79180
O2098       O  0.97016189  0.40917400  0.73577518    -0.80960
O2099       O  0.04955123  0.38140759  0.72773423    -0.83700
C2100       C  0.99775213  0.35433481  0.78487955     0.97060
C2101       C  0.96249163  0.35144540  0.73878315     1.04500
O2102       O  0.00490323  0.38099188  0.74091771    -1.12690
O2103       O  0.01249574  0.38623131  0.69734523    -0.75120
O2104       O  0.01808658  0.35337534  0.70670101    -0.78600
O2105       O  0.99344901  0.37367423  0.78469073    -0.79290
C2106       C  0.01277724  0.36692173  0.69320578     0.95970
O2107       O  0.03935983  0.35489136  0.74792301    -0.77250
O2108       O  0.99871008  0.42202985  0.72029922    -0.82440
C2109       C  0.02043208  0.42216247  0.76597693     0.98590
C2110       C  0.97914135  0.42258715  0.72413350     1.04510
O2111       O  0.00183516  0.41550415  0.76941778    -0.78090
C2112       C  0.05353120  0.36665436  0.74061415     1.02810
C2113       C  0.18478745  0.09692027  0.72898819    -0.21450
C2114       C  0.20235923  0.09696481  0.74215091    -0.09500
C2115       C  0.20449792  0.08121980  0.75740272     0.29360
C2116       C  0.19060904  0.06442897  0.75785293    -0.21450
C2117       C  0.17444468  0.06292730  0.74298659    -0.09510
C2118       C  0.17083712  0.08000963  0.72935370     0.29370
F2119       F  0.15481301  0.07975740  0.71532397    -0.20030
H2120       H  0.18285838  0.10900042  0.71724357     0.17730
H2121       H  0.19352270  0.05187743  0.76888163     0.17740
F2122       F  0.22103393  0.08126741  0.77085964    -0.20020
C2123       C  0.36394061  0.10746885  0.72662543    -0.21450
C2124       C  0.35788522  0.08745615  0.71957846    -0.09500
C2125       C  0.33652535  0.08184947  0.72078462     0.29360
C2126       C  0.32204012  0.09517859  0.72951490    -0.21450
C2127       C  0.32760266  0.11515970  0.73638861    -0.09510
C2128       C  0.34873208  0.12151072  0.73463505     0.29370
F2129       F  0.35477190  0.14062446  0.74150025    -0.20030
H2130       H  0.38026006  0.11217253  0.72592667     0.17730
H2131       H  0.30616673  0.08941190  0.73116458     0.17740
F2132       F  0.32937580  0.06291559  0.71435045    -0.20020
C2133       C  0.06781417  0.07938808  0.75615432    -0.21450
C2134       C  0.04704516  0.07323765  0.76016383    -0.09500
C2135       C  0.04272285  0.05194880  0.76345906     0.29360
C2136       C  0.05868228  0.03697986  0.76075192    -0.21450
C2137       C  0.07899526  0.04313006  0.75452606    -0.09510
C2138       C  0.08361327  0.06460687  0.75331165     0.29370
F2139       F  0.10315020  0.07137422  0.74812131    -0.20030
H2140       H  0.07145973  0.09571927  0.75346439     0.17730
H2141       H  0.05474841  0.02056012  0.76193824     0.17740
F2142       F  0.02275575  0.04549168  0.76708463    -0.20020
C2143       C  0.22510385  0.21509601  0.77029723    -0.21450
C2144       C  0.22013373  0.19423426  0.76576150    -0.09500
C2145       C  0.19905037  0.18776248  0.76622341     0.29360
C2146       C  0.18308241  0.20242480  0.76852711    -0.21450
C2147       C  0.18790752  0.22368500  0.77051741    -0.09510
C2148       C  0.20900372  0.22985709  0.77266696     0.29370
F2149       F  0.21405817  0.25038582  0.77431765    -0.20030
H2150       H  0.24128260  0.22032127  0.76988387     0.17730
H2151       H  0.16689790  0.19742347  0.76688718     0.17740
F2152       F  0.19386425  0.16752555  0.76248306    -0.20020
C2153       C  0.07845289  0.17155321  0.72731087    -0.21450
C2154       C  0.06326278  0.16891541  0.74295763    -0.09500
C2155       C  0.06453375  0.18074802  0.76136117     0.29360
C2156       C  0.07941165  0.19651700  0.76315535    -0.21450
C2157       C  0.09309164  0.20090636  0.74653399    -0.09510
C2158       C  0.09335803  0.18756481  0.72902337     0.29370
F2159       F  0.10636707  0.19137296  0.71264384    -0.20030
H2160       H  0.07757470  0.16255459  0.71300117     0.17730
H2161       H  0.07917834  0.20634115  0.77693911     0.17740
F2162       F  0.05026753  0.17814671  0.77691937    -0.20020
C2163       C  0.09511491  0.34449056  0.77463265    -0.21450
C2164       C  0.10757395  0.33474148  0.75951693    -0.09500
C2165       C  0.10581014  0.34106168  0.73846653     0.29360
C2166       C  0.08957005  0.35450319  0.73228793    -0.21450
C2167       C  0.07513746  0.36170496  0.74712113    -0.09510
C2168       C  0.07904621  0.35803925  0.76849886     0.29370
F2169       F  0.06557903  0.36536025  0.78319858    -0.20030
H2170       H  0.09603069  0.33957652  0.79084590     0.17730
H2171       H  0.08670435  0.35700763  0.71575965     0.17740
F2172       F  0.11749607  0.33153986  0.72350931    -0.20020
C2173       C  0.91243009  0.32167095  0.75198558    -0.21450
C2174       C  0.91595666  0.30314030  0.74081129    -0.09500
C2175       C  0.93266669  0.30234560  0.72648152     0.29360
C2176       C  0.94644999  0.31907866  0.72453889    -0.21450
C2177       C  0.94432739  0.33691850  0.73714797    -0.09510
C2178       C  0.92658544  0.33845274  0.75031608     0.29370
F2179       F  0.92352098  0.35555045  0.76244388    -0.20030
H2180       H  0.89947747  0.32269225  0.76290391     0.17730
H2181       H  0.95961695  0.31740477  0.71395814     0.17740
F2182       F  0.93619084  0.28500103  0.71479251    -0.20020
C2183       C  0.91686874  0.15476714  0.76049422    -0.21450
C2184       C  0.92953912  0.14541471  0.74514849    -0.09500
C2185       C  0.92418920  0.14841236  0.72397678     0.29360
C2186       C  0.90801371  0.16225617  0.71832471    -0.21450
C2187       C  0.89657596  0.17311442  0.73363626    -0.09510
C2188       C  0.90035213  0.16828003  0.75482560     0.29370
F2189       F  0.89012242  0.17891020  0.77007671    -0.20030
H2190       H  0.92106342  0.15326095  0.77685947     0.17730
H2191       H  0.90590168  0.16615407  0.70195042     0.17740
F2192       F  0.93650853  0.14026308  0.70870984    -0.20020
C2193       C  0.31880681  0.94799337  0.70326780    -0.21450
C2194       C  0.31694691  0.93304101  0.71920699    -0.09500
C2195       C  0.33303521  0.93135641  0.73430766     0.29360
C2196       C  0.34942910  0.94603962  0.73468604    -0.21450
C2197       C  0.34991381  0.96228279  0.71992117    -0.09510
C2198       C  0.33516511  0.96239630  0.70351166     0.29370
F2199       F  0.33563771  0.97754582  0.68859204    -0.20030
H2200       H  0.30691769  0.94923901  0.69117434     0.17730
H2201       H  0.36059071  0.94578883  0.74748975     0.17740
F2202       F  0.33184898  0.91687599  0.74980234    -0.20020
C2203       C  0.18121048  0.90437394  0.73463932    -0.21450
C2204       C  0.18494166  0.90608822  0.71302766    -0.09500
C2205       C  0.17133916  0.91808764  0.70067631     0.29360
C2206       C  0.15590871  0.93027162  0.71022142    -0.21450
C2207       C  0.15466844  0.93138706  0.73216815    -0.09510
C2208       C  0.16628742  0.91720773  0.74427779     0.29370
F2209       F  0.16571697  0.91823634  0.76547619    -0.20030
H2210       H  0.19180786  0.89535524  0.74440350     0.17730
H2211       H  0.14727183  0.94134979  0.70066099     0.17740
F2212       F  0.17474490  0.92010929  0.67980671    -0.20020
C2213       C  0.46333137  0.95307598  0.70365088    -0.21450
C2214       C  0.48382665  0.95978958  0.70818097    -0.09500
C2215       C  0.48825897  0.98132533  0.70829253     0.29360
C2216       C  0.47180387  0.99580685  0.70651588    -0.21450
C2217       C  0.45097505  0.98883616  0.70461938    -0.09510
C2218       C  0.44699766  0.96746243  0.70194439     0.29370
F2219       F  0.42699909  0.96039403  0.69982040    -0.20030
H2220       H  0.45964046  0.93654998  0.70336783     0.17730
H2221       H  0.47506239  0.01225045  0.70885459     0.17740
F2222       F  0.50787611  0.98828922  0.71284768    -0.20020
C2223       C  0.93253639  0.45655565  0.71081022    -0.21450
C2224       C  0.94172485  0.47647335  0.71135085    -0.09500
C2225       C  0.96365262  0.47824240  0.71232853     0.29360
C2226       C  0.97605737  0.46027267  0.71441507    -0.21450
C2227       C  0.96665413  0.44041936  0.71613395    -0.09510
C2228       C  0.94482587  0.43863905  0.71327993     0.29370
F2229       F  0.93519742  0.41974233  0.71435733    -0.20030
H2230       H  0.91558447  0.45497196  0.71049098     0.17730
H2231       H  0.99282957  0.46208112  0.71664723     0.17740
F2232       F  0.97284536  0.49733733  0.71350599    -0.20020
C2233       C  0.31989200  0.54733568  0.30381554    -0.21450
C2234       C  0.33389844  0.53064765  0.30088251    -0.09500
C2235       C  0.33412784  0.51415946  0.31556861     0.29360
C2236       C  0.31887600  0.51331415  0.33132296    -0.21450
C2237       C  0.30337961  0.52881221  0.33245414    -0.09510
C2238       C  0.30467829  0.54639574  0.31937736     0.29370
F2239       F  0.29014848  0.56188580  0.32060103    -0.20030
H2240       H  0.31968369  0.56044818  0.29306262     0.17730
H2241       H  0.31799966  0.49964977  0.34132002     0.17740
F2242       F  0.34755595  0.49783781  0.31345032    -0.20020
C2243       C  0.30125064  0.45428460  0.21681915    -0.21450
C2244       C  0.30037651  0.43896123  0.23255062    -0.09500
C2245       C  0.31712016  0.43748202  0.24698929     0.29360
C2246       C  0.33303065  0.45258704  0.24702768    -0.21450
C2247       C  0.33236655  0.46926090  0.23278233    -0.09510
C2248       C  0.31702019  0.46933376  0.21693922     0.29370
F2249       F  0.31639740  0.48486308  0.20243070    -0.20030
H2250       H  0.28894492  0.45549031  0.20514995     0.17730
H2251       H  0.34476786  0.45225732  0.25931286     0.17740
F2252       F  0.31721628  0.42264909  0.26220175    -0.20020
C2253       C  0.25770754  0.43503996  0.31462375    -0.21450
C2254       C  0.24024035  0.43252224  0.30149274    -0.09500
C2255       C  0.22173238  0.44362819  0.30567279     0.29360
C2256       C  0.22139116  0.45860811  0.32143968    -0.21450
C2257       C  0.23958852  0.46292583  0.33309387    -0.09510
C2258       C  0.25746331  0.45022379  0.33037590     0.29370
F2259       F  0.27543726  0.45408269  0.34114588    -0.20030
H2260       H  0.27215974  0.42671716  0.31140239     0.17730
H2261       H  0.20737454  0.46799966  0.32340982     0.17740
F2262       F  0.20453359  0.44120334  0.29334290    -0.20020
C2263       C  0.43998055  0.55364922  0.31658897    -0.21450
C2264       C  0.46120251  0.55388910  0.31073422    -0.09500
C2265       C  0.46633053  0.55631970  0.28946397     0.29360
C2266       C  0.45036084  0.55658209  0.27420536    -0.21450
C2267       C  0.42919192  0.55421356  0.28004112    -0.09510
C2268       C  0.42411519  0.55385765  0.30146362     0.29370
F2269       F  0.40383293  0.55183871  0.30770841    -0.20030
H2270       H  0.43571809  0.55156872  0.33287349     0.17730
H2271       H  0.45466875  0.55652096  0.25781650     0.17740
F2272       F  0.48671631  0.55599711  0.28329773    -0.20020
C2273       C  0.40957169  0.51668060  0.42258396    -0.21450
C2274       C  0.41101259  0.53250179  0.43780549    -0.09500
C2275       C  0.42613628  0.54837611  0.43525220     0.29360
C2276       C  0.44102867  0.54690866  0.41943304    -0.21450
C2277       C  0.44096727  0.52989771  0.40569366    -0.09510
C2278       C  0.42448729  0.51537771  0.40653665     0.29370
F2279       F  0.42406783  0.49883486  0.39330329    -0.20030
H2280       H  0.39796703  0.50439201  0.42403096     0.17730
H2281       H  0.45350891  0.55841628  0.41872801     0.17740
F2282       F  0.42754761  0.56456217  0.44888608    -0.20020
C2283       C  0.31876515  0.55476286  0.43608861    -0.21450
C2284       C  0.31363452  0.55425489  0.45747254    -0.09500
C2285       C  0.29229653  0.55595613  0.46315661     0.29360
C2286       C  0.27648060  0.55608483  0.44764798    -0.21450
C2287       C  0.28172644  0.55468844  0.42631229    -0.09510
C2288       C  0.30307470  0.55497801  0.42071628     0.29370
F2289       F  0.30873947  0.55340669  0.40030555    -0.20030
H2290       H  0.33500686  0.55340104  0.43123526     0.17730
H2291       H  0.26016864  0.55528084  0.45238176     0.17740
F2292       F  0.28661213  0.55502496  0.48359383    -0.20020
C2293       C  0.52878788  0.45544792  0.29482767    -0.21450
C2294       C  0.52496282  0.46276611  0.27449659    -0.09500
C2295       C  0.52361897  0.48436468  0.27088069     0.29360
C2296       C  0.52423508  0.49831721  0.28774750    -0.21450
C2297       C  0.52566233  0.49076716  0.30837814    -0.09510
C2298       C  0.52911559  0.46928872  0.31168802     0.29370
F2299       F  0.53089965  0.46147152  0.33138119    -0.20030
H2300       H  0.52948930  0.43879968  0.29789404     0.17730
H2301       H  0.52132961  0.51474433  0.28483189     0.17740
F2302       F  0.51937310  0.49174006  0.25140120    -0.20020
C2303       C  0.46762545  0.48404914  0.21119458    -0.21450
C2304       C  0.46174053  0.46322464  0.20753256    -0.09500
C2305       C  0.44074749  0.45880788  0.20218144     0.29360
C2306       C  0.42545516  0.47434683  0.20361074    -0.21450
C2307       C  0.43093346  0.49454914  0.20994942    -0.09510
C2308       C  0.45225585  0.49969988  0.21246406     0.29370
F2309       F  0.45787970  0.51908484  0.21897596    -0.20030
H2310       H  0.48361774  0.48773835  0.21567736     0.17730
H2311       H  0.40907941  0.47014445  0.20166008     0.17740
F2312       F  0.43462615  0.43887991  0.19821995    -0.20020
C2313       C  0.41442532  0.34111088  0.21888201    -0.21450
C2314       C  0.40163087  0.33926554  0.23658107    -0.09500
C2315       C  0.40289986  0.35427662  0.25249254     0.29360
C2316       C  0.41870676  0.36943523  0.25180090    -0.21450
C2317       C  0.43329585  0.36956087  0.23529238    -0.09510
C2318       C  0.43010399  0.35621360  0.21812650     0.29370
F2319       F  0.44322606  0.35653906  0.20141760    -0.20030
H2320       H  0.41342724  0.32969811  0.20641670     0.17730
H2321       H  0.42076512  0.37966277  0.26512622     0.17740
F2322       F  0.39071828  0.35265572  0.26984019    -0.20020
C2323       C  0.31439836  0.32969962  0.20625743    -0.21450
C2324       C  0.30877156  0.30917889  0.21149507    -0.09500
C2325       C  0.28742493  0.30417668  0.21401081     0.29360
C2326       C  0.27218445  0.32001386  0.21335547    -0.21450
C2327       C  0.27820635  0.34096339  0.21056130    -0.09510
C2328       C  0.29927770  0.34549688  0.20575608     0.29370
F2329       F  0.30556839  0.36554229  0.20270224    -0.20030
H2330       H  0.33081244  0.33386817  0.20459446     0.17730
H2331       H  0.25610638  0.31621345  0.21739379     0.17740
F2332       F  0.28165104  0.28455608  0.21969306    -0.20020
C2333       C  0.49772788  0.43584206  0.42444760    -0.21450
C2334       C  0.50064125  0.44276690  0.44516030    -0.09500
C2335       C  0.50565684  0.46394589  0.44867232     0.29360
C2336       C  0.50759184  0.47764649  0.43211666    -0.21450
C2337       C  0.50427241  0.47106057  0.41155316    -0.09510
C2338       C  0.49925987  0.45002195  0.40765294     0.29370
F2339       F  0.49600729  0.44324000  0.38781462    -0.20030
H2340       H  0.49385872  0.41967217  0.42132304     0.17730
H2341       H  0.51095857  0.49387688  0.43559580     0.17740
F2342       F  0.50845468  0.47184172  0.46819169    -0.20020
C2343       C  0.44037932  0.45480737  0.52495997    -0.21450
C2344       C  0.44110582  0.43839878  0.51043373    -0.09500
C2345       C  0.42452144  0.43646778  0.49581221     0.29360
C2346       C  0.40921834  0.45212911  0.49415000    -0.21450
C2347       C  0.41026178  0.46981133  0.50697973    -0.09510
C2348       C  0.42519368  0.47040266  0.52322896     0.29370
F2349       F  0.42598891  0.48685349  0.53659422    -0.20030
H2350       H  0.45251192  0.45651024  0.53673436     0.17730
H2351       H  0.39766122  0.45125740  0.48172656     0.17740
F2352       F  0.42393730  0.42038455  0.48202385    -0.20020
C2353       C  0.52577942  0.30722776  0.45044206    -0.21450
C2354       C  0.52841730  0.31418007  0.42974014    -0.09500
C2355       C  0.53372733  0.33524965  0.42619131     0.29360
C2356       C  0.53387635  0.34950851  0.44272195    -0.21450
C2357       C  0.52893264  0.34300414  0.46306588    -0.09510
C2358       C  0.52590741  0.32158570  0.46704696     0.29370
F2359       F  0.52052017  0.31497150  0.48651018    -0.20030
H2360       H  0.52122480  0.29120227  0.45350660     0.17730
H2361       H  0.53593614  0.36597594  0.43932510     0.17740
F2362       F  0.53643093  0.34247389  0.40638486    -0.20020
C2363       C  0.51359520  0.37056791  0.31116624    -0.21450
C2364       C  0.49379037  0.37761571  0.30482847    -0.09500
C2365       C  0.47598896  0.37254118  0.31669106     0.29360
C2366       C  0.47781514  0.35862713  0.33349490    -0.21450
C2367       C  0.49735411  0.34954236  0.33824604    -0.09510
C2368       C  0.51546139  0.35670835  0.32788361     0.29370
F2369       F  0.53466350  0.34868666  0.33252188    -0.20030
H2370       H  0.52740548  0.37448291  0.30210703     0.17730
H2371       H  0.46365562  0.35320185  0.34116617     0.17740
F2372       F  0.45664056  0.37905611  0.31055237    -0.20020
C2373       C  0.42244495  0.30027901  0.33173963    -0.21450
C2374       C  0.43605535  0.28365680  0.33612877    -0.09500
C2375       C  0.43295848  0.26436951  0.32629993     0.29360
C2376       C  0.41812294  0.26242809  0.31036081    -0.21450
C2377       C  0.40580356  0.27963221  0.30440738    -0.09510
C2378       C  0.40714020  0.29823956  0.31611984     0.29370
F2379       F  0.39526223  0.31512449  0.31106243    -0.20030
H2380       H  0.42473457  0.31528056  0.33921858     0.17730
H2381       H  0.41706363  0.24781259  0.30190463     0.17740
F2382       F  0.44522900  0.24780142  0.33129115    -0.20020
C2383       C  0.21129026  0.33434108  0.31130505    -0.21450
C2384       C  0.21556517  0.31326157  0.30719715    -0.09500
C2385       C  0.21573931  0.30614020  0.28639631     0.29360
C2386       C  0.21456171  0.32054889  0.26995490    -0.21450
C2387       C  0.21294096  0.34193764  0.27426752    -0.09510
C2388       C  0.20990555  0.34863583  0.29490941     0.29370
F2389       F  0.20835170  0.36932133  0.29932203    -0.20030
H2390       H  0.21099244  0.34002838  0.32725816     0.17730
H2391       H  0.21732793  0.31528191  0.25409587     0.17740
F2392       F  0.22004117  0.28584612  0.28200381    -0.20020
C2393       C  0.27584691  0.24728870  0.28914402    -0.21450
C2394       C  0.28159600  0.24873216  0.31028908    -0.09500
C2395       C  0.30269932  0.24636715  0.31605369     0.29360
C2396       C  0.31813168  0.24521835  0.30068496    -0.21450
C2397       C  0.31268912  0.24680136  0.27943447    -0.09510
C2398       C  0.29137297  0.24630439  0.27366491     0.29370
F2399       F  0.28564464  0.24801233  0.25326919    -0.20030
H2400       H  0.25958644  0.24929512  0.28453117     0.17730
H2401       H  0.33448492  0.24552708  0.30541349     0.17740
F2402       F  0.30852770  0.24755849  0.33646497    -0.20020
C2403       C  0.25688239  0.37108006  0.41954875    -0.21450
C2404       C  0.24077655  0.37185993  0.43445662    -0.09500
C2405       C  0.22300190  0.35912332  0.43196584     0.29360
C2406       C  0.22250174  0.34407810  0.41628044    -0.21450
C2407       C  0.23979964  0.34135481  0.40294981    -0.09510
C2408       C  0.25645413  0.35587836  0.40379838     0.29370
F2409       F  0.27336937  0.35396019  0.39104525    -0.20030
H2410       H  0.27070109  0.38079987  0.42131144     0.17730
H2411       H  0.20927788  0.33343347  0.41566926     0.17740
F2412       F  0.20691369  0.36002891  0.44587076    -0.20020
C2413       C  0.27600610  0.48325273  0.52543495    -0.21450
C2414       C  0.28196929  0.46212178  0.52652022    -0.09500
C2415       C  0.30319090  0.45719768  0.53018848     0.29360
C2416       C  0.31840847  0.47290404  0.53008031    -0.21450
C2417       C  0.31276369  0.49377656  0.52646295    -0.09510
C2418       C  0.29134323  0.49905370  0.52532115     0.29370
F2419       F  0.28545627  0.51905902  0.52136501    -0.20030
H2420       H  0.25979371  0.48739125  0.52234488     0.17730
H2421       H  0.33483741  0.46853537  0.53087010     0.17740
F2422       F  0.30944892  0.43697378  0.53174148    -0.20020
C2423       C  0.21788603  0.48477891  0.46681379    -0.21450
C2424       C  0.21541836  0.46338092  0.46272383    -0.09500
C2425       C  0.21068468  0.45690169  0.44229268     0.29360
C2426       C  0.21076090  0.47131753  0.42585059    -0.21450
C2427       C  0.21550074  0.49241788  0.42954098    -0.09510
C2428       C  0.21778952  0.49931099  0.45032225     0.29370
F2429       F  0.22279349  0.51951216  0.45439931    -0.20030
H2430       H  0.22204235  0.48996261  0.48240446     0.17730
H2431       H  0.20903824  0.46567151  0.40997074     0.17740
F2432       F  0.20844246  0.43627227  0.43791423    -0.20020
C2433       C  0.32474049  0.25914158  0.43016856    -0.21450
C2434       C  0.33717019  0.27670193  0.43464890    -0.09500
C2435       C  0.33537930  0.29455615  0.42175731     0.29360
C2436       C  0.32001524  0.29533436  0.40602366    -0.21450
C2437       C  0.30630793  0.27844187  0.40311257    -0.09510
C2438       C  0.30936340  0.26003163  0.41467149     0.29370
F2439       F  0.29640008  0.24341137  0.41200113    -0.20030
H2440       H  0.32595667  0.24511947  0.43962085     0.17730
H2441       H  0.31764235  0.30973944  0.39740303     0.17740
F2442       F  0.34692244  0.31195427  0.42564935    -0.20020
C2443       C  0.33655204  0.35234456  0.48802696    -0.21450
C2444       C  0.33624513  0.33586576  0.50251799    -0.09500
C2445       C  0.32108557  0.33578189  0.51844734     0.29360
C2446       C  0.30514374  0.35066154  0.51849770    -0.21450
C2447       C  0.30388925  0.36576345  0.50254555    -0.09510
C2448       C  0.32044471  0.36724721  0.48795484     0.29370
F2449       F  0.32015254  0.38183868  0.47251255    -0.20030
H2450       H  0.34816012  0.35262857  0.47565058     0.17730
H2451       H  0.29299563  0.34947790  0.53029722     0.17740
F2452       F  0.32086958  0.32041482  0.53313684    -0.20020
C2453       C  0.42780141  0.33304764  0.53104518    -0.21450
C2454       C  0.43327304  0.31229281  0.52699903    -0.09500
C2455       C  0.45450467  0.30638213  0.52670134     0.29360
C2456       C  0.47010565  0.32172100  0.52754641    -0.21450
C2457       C  0.46442140  0.34286301  0.52857827    -0.09510
C2458       C  0.44332252  0.34830442  0.53206093     0.29370
F2459       F  0.43754942  0.36864219  0.53390257    -0.20030
H2460       H  0.41143962  0.33770937  0.53138222     0.17730
H2461       H  0.48629077  0.31729586  0.52478248     0.17740
F2462       F  0.46001477  0.28631664  0.52260496    -0.20020
C2463       C  0.42691094  0.24935301  0.43602474    -0.21450
C2464       C  0.43291074  0.25155490  0.45703337    -0.09500
C2465       C  0.45427559  0.25013271  0.46244971     0.29360
C2466       C  0.46949501  0.24946468  0.44667364    -0.21450
C2467       C  0.46340805  0.24997366  0.42557774    -0.09510
C2468       C  0.44206343  0.24851931  0.42035959     0.29370
F2469       F  0.43587182  0.24919658  0.40002590    -0.20030
H2470       H  0.41049310  0.25024613  0.43160577     0.17730
H2471       H  0.48591150  0.25105658  0.45087628     0.17740
F2472       F  0.46051555  0.25232049  0.48264364    -0.20020
C2473       C  0.25385813  0.08315546  0.64773399    -0.21450
C2474       C  0.26993207  0.06820056  0.64771481    -0.09500
C2475       C  0.28618330  0.06975372  0.66256079     0.29360
C2476       C  0.28535249  0.08488285  0.67823034    -0.21450
C2477       C  0.26827064  0.09871608  0.67951829    -0.09510
C2478       C  0.25291168  0.09826670  0.66351553     0.29370
F2479       F  0.23613445  0.11134652  0.66385913    -0.20030
H2480       H  0.24122037  0.08224899  0.63640099     0.17730
H2481       H  0.29762535  0.08506887  0.68996150     0.17740
F2482       F  0.30249583  0.05608694  0.66240144    -0.20020
C2483       C  0.35130811  0.03360547  0.62323816    -0.21450
C2484       C  0.34598518  0.01270765  0.61888870    -0.09500
C2485       C  0.35830513  0.99675333  0.62766550     0.29360
C2486       C  0.37330039  0.00155473  0.64303230    -0.21450
C2487       C  0.37626653  0.02229798  0.64974951    -0.09510
C2488       C  0.36645422  0.03842568  0.63845730     0.29370
F2489       F  0.36866162  0.05857981  0.64465051    -0.20030
H2490       H  0.34179413  0.04615015  0.61688539     0.17730
H2491       H  0.38049082  0.98884269  0.65167810     0.17740
F2492       F  0.35341738  0.97643200  0.62407976    -0.20020
C2493       C  0.29101576  0.92707686  0.62702374    -0.21450
C2494       C  0.27713025  0.93953861  0.61542180    -0.09500
C2495       C  0.25549338  0.93503465  0.61608932     0.29360
C2496       C  0.24773768  0.92039348  0.63053095    -0.21450
C2497       C  0.26153323  0.90997417  0.64414295    -0.09510
C2498       C  0.28330948  0.91222604  0.64113049     0.29370
F2499       F  0.29701580  0.90249791  0.65421745    -0.20030
H2500       H  0.30768192  0.93051617  0.62696303     0.17730
H2501       H  0.23093232  0.91928236  0.63293163     0.17740
F2502       F  0.24166101  0.94716468  0.60536854    -0.20020
C2503       C  0.19582915  0.00628719  0.64383691    -0.21450
C2504       C  0.21555116  0.99721746  0.64810222    -0.09500
C2505       C  0.21847725  0.98681739  0.66733450     0.29360
C2506       C  0.20283387  0.98741096  0.68257435    -0.21450
C2507       C  0.18388582  0.99812662  0.67900497    -0.09510
C2508       C  0.18005840  0.00666034  0.65908575     0.29370
F2509       F  0.16178799  0.01674472  0.65484130    -0.20030
H2510       H  0.19297759  0.01415372  0.62908293     0.17730
H2511       H  0.20595995  0.98020932  0.69762096     0.17740
F2512       F  0.23698502  0.97741850  0.67216828    -0.20020
C2513       C  0.28911638  0.07246723  0.51545947    -0.21450
C2514       C  0.28363700  0.09214074  0.52350075    -0.09500
C2515       C  0.28410211  0.09539404  0.54521013     0.29360
C2516       C  0.28745335  0.07861981  0.55868355    -0.21450
C2517       C  0.29032234  0.05844744  0.55070604    -0.09510
C2518       C  0.29234764  0.05556891  0.52903988     0.29370
F2519       F  0.29473670  0.03610822  0.52099441    -0.20030
H2520       H  0.28886529  0.06971937  0.49874208     0.17730
H2521       H  0.28582532  0.08101628  0.57538671     0.17740
F2522       F  0.27968475  0.11444528  0.55340613    -0.20020
C2523       C  0.27247552  0.18767404  0.40672174    -0.21450
C2524       C  0.25769028  0.17772757  0.41947589    -0.09500
C2525       C  0.23612927  0.18088275  0.41576183     0.29360
C2526       C  0.22953476  0.19572737  0.40111872    -0.21450
C2527       C  0.24441362  0.20751765  0.39017466    -0.09510
C2528       C  0.26586274  0.20252727  0.39205617     0.29370
F2529       F  0.28050134  0.21390319  0.38161746    -0.20030
H2530       H  0.28911622  0.18568070  0.40968412     0.17730
H2531       H  0.21301725  0.19971659  0.40018112     0.17740
F2532       F  0.22158223  0.17156274  0.42819531    -0.20020
C2533       C  0.33514209  0.17435500  0.50870201    -0.21450
C2534       C  0.33002322  0.17086109  0.48764006    -0.09500
C2535       C  0.34168072  0.18074567  0.47188211     0.29360
C2536       C  0.35616797  0.19622854  0.47722601    -0.21450
C2537       C  0.35894957  0.20184941  0.49824450    -0.09510
C2538       C  0.34951996  0.18990573  0.51403873     0.29370
F2539       F  0.35172591  0.19541710  0.53442600    -0.20030
H2540       H  0.32593336  0.16711463  0.52099126     0.17730
H2541       H  0.36306993  0.20564252  0.46490782     0.17740
F2542       F  0.33660660  0.17791007  0.45144661    -0.20020
C2543       C  0.18087227  0.22061406  0.46860554    -0.21450
C2544       C  0.16403151  0.22000172  0.48275784    -0.09500
C2545       C  0.16165495  0.20220563  0.49568463     0.29360
C2546       C  0.17715568  0.18663650  0.49595706    -0.21450
C2547       C  0.19510812  0.18869028  0.48345023    -0.09510
C2548       C  0.19630586  0.20524550  0.46901461     0.29370
F2549       F  0.21321727  0.20735903  0.45625447    -0.20030
H2550       H  0.18294319  0.23374369  0.45808634     0.17730
H2551       H  0.17593710  0.17391993  0.50710434     0.17740
F2552       F  0.14520198  0.20046504  0.50905701    -0.20020
C2553       C  0.16740252  0.29652938  0.39131483    -0.21450
C2554       C  0.17133784  0.27540786  0.38698241    -0.09500
C2555       C  0.15823074  0.26003432  0.39559468     0.29360
C2556       C  0.14293067  0.26565367  0.41024893    -0.21450
C2557       C  0.14100971  0.28653294  0.41667540    -0.09510
C2558       C  0.15244843  0.30209638  0.40624893     0.29370
F2559       F  0.15119042  0.32229924  0.41254746    -0.20030
H2560       H  0.17772555  0.30851213  0.38514001     0.17730
H2561       H  0.13457941  0.25342941  0.41854197     0.17740
F2562       F  0.16213908  0.23950034  0.39205295    -0.20020
C2563       C  0.14508802  0.35632559  0.51109177    -0.21450
C2564       C  0.14030180  0.35162860  0.49010771    -0.09500
C2565       C  0.14843539  0.36448323  0.47427032     0.29360
C2566       C  0.16337146  0.37981206  0.47921204    -0.21450
C2567       C  0.17021562  0.38261449  0.49997887    -0.09510
C2568       C  0.15989491  0.37175105  0.51604747     0.29370
F2569       F  0.16654048  0.37359345  0.53615321    -0.20030
H2570       H  0.13928036  0.34632442  0.52350872     0.17730
H2571       H  0.17144671  0.38772884  0.46655930     0.17740
F2572       F  0.14454020  0.36006004  0.45387020    -0.20020
C2573       C  0.05473632  0.28813706  0.67627810    -0.21450
C2574       C  0.05597848  0.27438565  0.65920207    -0.09500
C2575       C  0.07417716  0.26197828  0.65701893     0.29360
C2576       C  0.08944284  0.26167316  0.67281578    -0.21450
C2577       C  0.08686973  0.27366540  0.69100420    -0.09510
C2578       C  0.06995601  0.28780747  0.69202297     0.29370
F2579       F  0.06744677  0.30052749  0.70881002    -0.20030
H2580       H  0.04128669  0.29831944  0.67817473     0.17730
H2581       H  0.10246907  0.25087475  0.67147813     0.17740
F2582       F  0.07661259  0.24902114  0.64041857    -0.20020
C2583       C  0.91324605  0.27361804  0.64751293    -0.21450
C2584       C  0.92547990  0.25811589  0.63800743    -0.10010
C2585       C  0.92076926  0.23697206  0.64202860     0.29360
C2586       C  0.90579487  0.23156715  0.65714416    -0.21450
C2587       C  0.89568457  0.24716409  0.66871636    -0.09510
C2588       C  0.89861547  0.26821976  0.66297672     0.29370
F2589       F  0.88936513  0.28364766  0.67422377    -0.20030
H2590       H  0.91694482  0.28996090  0.64503909     0.17730
H2591       H  0.90415818  0.21531850  0.66165166     0.17740
F2592       F  0.93262037  0.22163722  0.63335697    -0.20020
C2593       C  0.98332376  0.35613763  0.67086221    -0.21450
C2594       C  0.00501348  0.35937393  0.67297793    -0.09500
C2595       C  0.01876191  0.35084340  0.65816057     0.29360
C2596       C  0.01092809  0.33791950  0.64230186    -0.21450
C2597       C  0.98945496  0.33286424  0.64159277    -0.09510
C2598       C  0.97557450  0.34273556  0.65545567     0.29370
F2599       F  0.95487730  0.33762067  0.65552830    -0.20030
H2600       H  0.97258715  0.36228356  0.68246787     0.17730
H2601       H  0.02192245  0.32993428  0.63215845     0.17740
F2602       F  0.03982414  0.35341750  0.66021116    -0.20020
C2603       C  0.98090905  0.20202825  0.66386119    -0.21450
C2604       C  0.99790157  0.20291817  0.64994148    -0.09500
C2605       C  0.01242792  0.18653091  0.64940756     0.29360
C2606       C  0.01138921  0.17079293  0.66455845    -0.21450
C2607       C  0.99589860  0.17141172  0.68031062    -0.09510
C2608       C  0.97978665  0.18636124  0.67891460     0.29370
F2609       F  0.96389155  0.18690456  0.69304760    -0.20030
H2610       H  0.96933971  0.21445267  0.66411035     0.17730
H2611       H  0.02380227  0.15923307  0.66502552     0.17740
F2612       F  0.02888585  0.18702455  0.63593622    -0.20020
C2613       C  0.05576344  0.30049559  0.56496984    -0.21450
C2614       C  0.03441901  0.29702214  0.56063940    -0.09500
C2615       C  0.02729229  0.29843844  0.53979778     0.29360
C2616       C  0.04181607  0.30029452  0.52347218    -0.21450
C2617       C  0.06335964  0.30100972  0.52789161    -0.09510
C2618       C  0.07017180  0.30239897  0.54870745     0.29370
F2619       F  0.09100479  0.30310544  0.55326085    -0.20030
H2620       H  0.06156914  0.29976184  0.58090026     0.17730
H2621       H  0.03642608  0.29891854  0.50744739     0.17740
F2622       F  0.00675835  0.29530480  0.53501159    -0.20020
C2623       C  0.03264593  0.22311208  0.45951463    -0.21450
C2624       C  0.04078898  0.20278099  0.45826359    -0.09500
C2625       C  0.06233301  0.19980710  0.45521600     0.29360
C2626       C  0.07585151  0.21690082  0.45568629    -0.21450
C2627       C  0.06805384  0.23704919  0.45972564    -0.09510
C2628       C  0.04623428  0.24028503  0.46028208     0.29370
F2629       F  0.03823332  0.25948129  0.46445238    -0.20030
H2630       H  0.01600454  0.22551091  0.46211839     0.17730
H2631       H  0.09263405  0.21412604  0.45508951     0.17740
F2632       F  0.07044766  0.18023981  0.45387195    -0.20020
C2633       C  0.97503550  0.20689783  0.56035984    -0.21450
C2634       C  0.97740903  0.22812719  0.55554050    -0.09500
C2635       C  0.97967599  0.23420026  0.53450904     0.29360
C2636       C  0.98095764  0.21903891  0.51871366    -0.21450
C2637       C  0.98040327  0.19766690  0.52380379    -0.09510
C2638       C  0.97646134  0.19177137  0.54468351     0.29370
F2639       F  0.97548437  0.17128645  0.55016193    -0.20030
H2640       H  0.97366802  0.20193316  0.57652320     0.17730
H2641       H  0.98431342  0.22395206  0.50283434     0.17740
F2642       F  0.98280415  0.25458630  0.52952908    -0.20020
C2643       C  0.03175267  0.10418974  0.38902180    -0.21450
C2644       C  0.01630236  0.09186820  0.37949471    -0.09500
C2645       C  0.99500538  0.09646762  0.38325320     0.29360
C2646       C  0.98935684  0.11178138  0.39789730    -0.21450
C2647       C  0.00487276  0.12250072  0.40918579    -0.09510
C2648       C  0.02611736  0.11941381  0.40373037     0.29370
F2649       F  0.04153449  0.12907754  0.41477245    -0.20030
H2650       H  0.04821467  0.10060494  0.38669529     0.17730
H2651       H  0.97299604  0.11334116  0.40226835     0.17740
F2652       F  0.97972940  0.08447647  0.37456812    -0.20020
C2653       C  0.21569000  0.05651261  0.44820591    -0.21450
C2654       C  0.19401070  0.06044021  0.44782565    -0.09500
C2655       C  0.18681292  0.08119971  0.44691117     0.29360
C2656       C  0.20081946  0.09761327  0.44993349    -0.21450
C2657       C  0.22212570  0.09348913  0.45333812    -0.09510
C2658       C  0.22979716  0.07304953  0.45097154     0.29370
F2659       F  0.25042194  0.06877560  0.45430841    -0.20030
H2660       H  0.22149090  0.04062206  0.44908111     0.17730
H2661       H  0.19477869  0.11335658  0.45153559     0.17740
F2662       F  0.16593093  0.08542158  0.44588388    -0.20020
C2663       C  0.22195604  0.99367422  0.50574087    -0.21450
C2664       C  0.20049008  0.99183850  0.51042632    -0.09500
C2665       C  0.19445109  0.98798098  0.53120445     0.29360
C2666       C  0.20938420  0.98788074  0.54724583    -0.21450
C2667       C  0.23068489  0.99170029  0.54295350    -0.09510
C2668       C  0.23702606  0.99354756  0.52186633     0.29370
F2669       F  0.25739201  0.99748935  0.51699039    -0.20030
H2670       H  0.22687668  0.99712029  0.48988371     0.17730
H2671       H  0.20405845  0.98622239  0.56325441     0.17740
F2672       F  0.17380594  0.98616895  0.53619726    -0.20020
C2673       C  0.09883466  0.08984804  0.48772680    -0.21450
C2674       C  0.09712897  0.07423204  0.47233475    -0.09500
C2675       C  0.08088702  0.07558665  0.45741744     0.29360
C2676       C  0.06533116  0.09066976  0.45952170    -0.21450
C2677       C  0.06584864  0.10478805  0.47623283    -0.09510
C2678       C  0.08325224  0.10511037  0.48968298     0.29370
F2679       F  0.08408185  0.11868932  0.50593830    -0.20030
H2680       H  0.11129343  0.08930167  0.49927054     0.17730
H2681       H  0.05213075  0.09054191  0.44878506     0.17740
F2682       F  0.07918956  0.06153416  0.44161420    -0.20020
C2683       C  0.11470192  0.03604284  0.39571937    -0.21450
C2684       C  0.11919591  0.01494387  0.39997129    -0.09500
C2685       C  0.11064254  0.99962057  0.38677605     0.29360
C2686       C  0.09612757  0.00520046  0.37113564    -0.21450
C2687       C  0.08963189  0.02608847  0.36858610    -0.09510
C2688       C  0.10005602  0.04160768  0.38019363     0.29370
F2689       F  0.09373440  0.06181611  0.37877802    -0.20030
H2690       H  0.12071912  0.04808914  0.40599507     0.17730
H2691       H  0.08789894  0.99287831  0.36290890     0.17740
F2692       F  0.11430568  0.97908972  0.39067608    -0.20020
C2693       C  0.07371444  0.97563369  0.65559431    -0.21450
C2694       C  0.05254773  0.97532092  0.66146021    -0.09500
C2695       C  0.04705277  0.97086616  0.68226250     0.29360
C2696       C  0.06273634  0.96982468  0.69756812    -0.21450
C2697       C  0.08376158  0.97328864  0.69201503    -0.09510
C2698       C  0.08932439  0.97444008  0.67078893     0.29370
F2699       F  0.10968865  0.97706221  0.66504676    -0.20030
H2700       H  0.07809119  0.97887112  0.63952815     0.17730
H2701       H  0.05823180  0.96899075  0.71388964     0.17740
F2702       F  0.02658624  0.97055293  0.68818510    -0.20020
C2703       C  0.99439065  0.03608085  0.68935453    -0.21450
C2704       C  0.98861700  0.04094983  0.66874115    -0.09500
C2705       C  0.97812830  0.05973981  0.66445717     0.29360
C2706       C  0.97538485  0.07444289  0.68029468    -0.21450
C2707       C  0.98305201  0.07047634  0.70050564    -0.09510
C2708       C  0.99175625  0.05082649  0.70520668     0.29370
F2709       F  0.00030443  0.04699709  0.72431537    -0.20030
H2710       H  0.00269337  0.02168903  0.69278526     0.17730
H2711       H  0.96884429  0.08959105  0.67641348     0.17740
F2712       F  0.97177371  0.06436019  0.64469938    -0.20020
C2713       C  0.07844293  0.98986229  0.55596247    -0.21450
C2714       C  0.07524584  0.00703477  0.56925246    -0.09500
C2715       C  0.08800378  0.02481163  0.56693347     0.29360
C2716       C  0.10250313  0.02592532  0.55046052    -0.21450
C2717       C  0.10420610  0.00946014  0.53604296    -0.09510
C2718       C  0.09276633  0.99103688  0.53947395     0.29370
F2719       F  0.09459997  0.97463206  0.52616893    -0.20030
H2720       H  0.06874938  0.97602668  0.55748844     0.17730
H2721       H  0.11106594  0.04033662  0.54791953     0.17740
F2722       F  0.08477316  0.04193431  0.57899385    -0.20020
C2723       C  0.01752403  0.08133916  0.56946353    -0.21450
C2724       C  0.00433909  0.06383510  0.56745268    -0.09500
C2725       C  0.98840969  0.06418443  0.55213952     0.29360
C2726       C  0.98694503  0.08084334  0.53813699    -0.21450
C2727       C  0.00139406  0.09745008  0.53883823    -0.09510
C2728       C  0.01614889  0.09800051  0.55529732     0.29370
F2729       F  0.03009646  0.11394035  0.55703589    -0.20030
H2730       H  0.02977917  0.08161716  0.58123115     0.17730
H2731       H  0.97514506  0.08006094  0.52593592     0.17740
F2732       F  0.97481051  0.04798586  0.54994589    -0.20020
C2733       C  0.92326913  0.03291151  0.57112317    -0.21450
C2734       C  0.91172267  0.01827743  0.55952492    -0.09500
C2735       C  0.91416676  0.99687589  0.56400142     0.29360
C2736       C  0.92959554  0.99016735  0.57805490    -0.21450
C2737       C  0.94255503  0.00469627  0.58810000    -0.09510
C2738       C  0.93863797  0.02616966  0.58538731     0.29370
F2739       F  0.95148477  0.04051824  0.59437801    -0.20030
H2740       H  0.92212497  0.04939646  0.56740957     0.17730
H2741       H  0.93267198  0.97359237  0.57967223     0.17740
F2742       F  0.90345721  0.98238079  0.55275319    -0.20020
C2743       C  0.92044221  0.02366760  0.40899818    -0.21450
C2744       C  0.92659993  0.02519269  0.43008620    -0.09500
C2745       C  0.94801591  0.02514013  0.43514853     0.29360
C2746       C  0.96297040  0.02392783  0.41960824    -0.21450
C2747       C  0.95724723  0.02260388  0.39839250    -0.09510
C2748       C  0.93572676  0.02258586  0.39310958     0.29370
F2749       F  0.92949551  0.02143428  0.37283567    -0.20030
H2750       H  0.90393666  0.02337427  0.40489259     0.17730
H2751       H  0.97925947  0.02364244  0.42451434     0.17740
F2752       F  0.95463355  0.02514782  0.45537788    -0.20020
C2753       C  0.90641463  0.09751386  0.47274784    -0.21450
C2754       C  0.90596698  0.09235198  0.49408449    -0.09500
C2755       C  0.91765217  0.10419377  0.50837546     0.29360
C2756       C  0.93133834  0.11960606  0.50107624    -0.21450
C2757       C  0.93391592  0.12272651  0.47949523    -0.09510
C2758       C  0.92059806  0.11245405  0.46539260     0.29370
F2759       F  0.92318459  0.11496304  0.44445816    -0.20030
H2760       H  0.89775730  0.08817781  0.46154117     0.17730
H2761       H  0.94187978  0.12709978  0.51207792     0.17740
F2762       F  0.91769303  0.09914668  0.52901771    -0.20020
C2763       C  0.10487583  0.91920168  0.48910428    -0.21450
C2764       C  0.09017322  0.91437654  0.47349796    -0.09500
C2765       C  0.09408416  0.92091973  0.45285057     0.29360
C2766       C  0.11064468  0.93455678  0.44847494    -0.21450
C2767       C  0.12329703  0.94212206  0.46471285    -0.09510
C2768       C  0.12143686  0.93303358  0.48472077     0.29370
F2769       F  0.13361508  0.93999844  0.50069076    -0.20030
H2770       H  0.10213957  0.91436271  0.50511800     0.17730
H2771       H  0.11155016  0.94156704  0.43304401     0.17740
F2772       F  0.08027839  0.91621735  0.43741405    -0.20020
C2773       C  0.99250276  0.94345518  0.56158148    -0.21450
C2774       C  0.00113480  0.93726113  0.58069068    -0.09500
C2775       C  0.01514112  0.92028344  0.58120084     0.29360
C2776       C  0.02184531  0.91108814  0.56242094    -0.21450
C2777       C  0.01596375  0.92004038  0.54317255    -0.09510
C2778       C  0.00139658  0.93662696  0.54312148     0.29370
F2779       F  0.99721259  0.94785284  0.52556881    -0.20030
H2780       H  0.98218458  0.95691574  0.56081436     0.17730
H2781       H  0.03289152  0.89823613  0.56293032     0.17740
F2782       F  0.02386280  0.91409511  0.59957150    -0.20020
C2783       C  0.93504690  0.95490087  0.49925774    -0.21450
C2784       C  0.92194605  0.95967122  0.48230102    -0.09500
C2785       C  0.92323167  0.94762051  0.46397490     0.29360
C2786       C  0.93910480  0.93253199  0.46194861    -0.21450
C2787       C  0.95342316  0.92917844  0.47834889    -0.09510
C2788       C  0.95033389  0.93943694  0.49743493     0.29370
F2789       F  0.96247211  0.93479150  0.51415913    -0.20030
H2790       H  0.93402118  0.96380748  0.51362256     0.17730
H2791       H  0.94113870  0.92459914  0.44713730     0.17740
F2792       F  0.91054863  0.95183183  0.44741081    -0.20020
C2793       C  0.03320404  0.94791818  0.38807360    -0.21450
C2794       C  0.01419191  0.95678936  0.38155923    -0.09500
C2795       C  0.99515342  0.94674805  0.38660277     0.29360
C2796       C  0.99514197  0.92970702  0.40028248    -0.21450
C2797       C  0.01404132  0.92261986  0.40897909    -0.09510
C2798       C  0.03313913  0.93069912  0.40148001     0.29370
F2799       F  0.05165697  0.92329406  0.40884156    -0.20030
H2800       H  0.04801221  0.95519088  0.38397529     0.17730
H2801       H  0.98026653  0.92383474  0.40605620     0.17740
F2802       F  0.97644353  0.95507884  0.38068455    -0.20020
C2803       C  0.28221734  0.23733791  0.69209099    -0.21450
C2804       C  0.27795987  0.23479589  0.67076478    -0.09500
C2805       C  0.27711070  0.21460952  0.66225231     0.29360
C2806       C  0.27820210  0.19717335  0.67529797    -0.21450
C2807       C  0.28018225  0.19963682  0.69701015    -0.09510
C2808       C  0.28344035  0.21983585  0.70522280     0.29370
F2809       F  0.28522654  0.22288841  0.72616008    -0.20030
H2810       H  0.28251281  0.25282658  0.69888349     0.17730
H2811       H  0.27586722  0.18181253  0.66859910     0.17740
F2812       F  0.27304947  0.21184405  0.64157559    -0.20020
C2813       C  0.19338814  0.30645727  0.67852851    -0.21450
C2814       C  0.21439209  0.30045165  0.68138150    -0.09500
C2815       C  0.22147355  0.29513947  0.70157800     0.29360
C2816       C  0.20704718  0.29329355  0.71800611    -0.21450
C2817       C  0.18558183  0.29666253  0.71432238    -0.09510
C2818       C  0.17904448  0.30459213  0.69489376     0.29370
F2819       F  0.15837960  0.30827673  0.69112651    -0.20030
H2820       H  0.18767795  0.31062149  0.66309480     0.17730
H2821       H  0.21226253  0.28685911  0.73282743     0.17740
F2822       F  0.24157788  0.28876111  0.70471660    -0.20020
C2823       C  0.18557655  0.29966931  0.56732068    -0.21450
C2824       C  0.18677969  0.28338927  0.58201839    -0.09500
C2825       C  0.17073167  0.26818450  0.58254639     0.29360
C2826       C  0.15560357  0.26771906  0.56669985    -0.21450
C2827       C  0.15648253  0.28231112  0.55038007    -0.09510
C2828       C  0.17062180  0.29907984  0.55150381     0.29370
F2829       F  0.17111046  0.31390402  0.53627174    -0.20030
H2830       H  0.19732276  0.31191837  0.56696399     0.17730
H2831       H  0.14459314  0.25482605  0.56607475     0.17740
F2832       F  0.17093974  0.25249783  0.59687678    -0.20020
C2833       C  0.23050651  0.35213336  0.59457593    -0.21450
C2834       C  0.25187848  0.34768759  0.59783507    -0.09500
C2835       C  0.26700253  0.36019162  0.58783849     0.29360
C2836       C  0.26079520  0.37585774  0.57371094    -0.21450
C2837       C  0.23945557  0.37893435  0.56894575    -0.09510
C2838       C  0.22430949  0.36745059  0.58008271     0.29370
F2839       F  0.20363290  0.36945955  0.57526655    -0.20030
H2840       H  0.21861039  0.34221838  0.60154977     0.17730
H2841       H  0.27273840  0.38398042  0.56477546     0.17740
F2842       F  0.28773990  0.35575685  0.59001896    -0.20020
C2843       C  0.33312693  0.29292073  0.58961694    -0.21450
C2844       C  0.32046277  0.27647825  0.59668512    -0.09500
C2845       C  0.32603107  0.25578204  0.59177503     0.29360
C2846       C  0.34228476  0.25183889  0.57767295    -0.21450
C2847       C  0.35292028  0.26849321  0.56822021    -0.09510
C2848       C  0.34922494  0.28897685  0.57527578     0.29370
F2849       F  0.35909030  0.30536904  0.56601775    -0.20030
H2850       H  0.32890386  0.30894728  0.59304200     0.17730
H2851       H  0.34464096  0.23603178  0.57211069     0.17740
F2852       F  0.31407548  0.23958101  0.59859965    -0.20020
C2853       C  0.26744711  0.20953513  0.57606159    -0.21450
C2854       C  0.24755230  0.21395812  0.58426796    -0.09500
C2855       C  0.23032701  0.20157161  0.57847495     0.29360
C2856       C  0.23273205  0.18622968  0.56305100    -0.21450
C2857       C  0.25227635  0.18333646  0.55319591    -0.09510
C2858       C  0.26988497  0.19425585  0.56074186     0.29370
F2859       F  0.28914948  0.19131893  0.55215133    -0.20030
H2860       H  0.28085752  0.21898947  0.58043986     0.17730
H2861       H  0.21891971  0.17809777  0.55741964     0.17740
F2862       F  0.21086046  0.20584030  0.58598112    -0.20020
C2863       C  0.95817646  0.05532651  0.26267909    -0.21450
C2864       C  0.93741372  0.05395143  0.27008610    -0.09500
C2865       C  0.93367898  0.05623232  0.29160691     0.29360
C2866       C  0.95048102  0.05739231  0.30560581    -0.21450
C2867       C  0.97129872  0.05590322  0.29848485    -0.09510
C2868       C  0.97510073  0.05616661  0.27681276     0.29370
F2869       F  0.99499014  0.05431757  0.26942158    -0.20030
H2870       H  0.96139306  0.05358231  0.24613662     0.17730
H2871       H  0.94719780  0.05708050  0.32223972     0.17740
F2872       F  0.91380285  0.05555152  0.29925287    -0.20020
C2873       C  0.93961740  0.95602074  0.19538037    -0.21450
C2874       C  0.96111671  0.96097089  0.19543110    -0.09500
C2875       C  0.96719492  0.98213003  0.19519487     0.29360
C2876       C  0.95202670  0.99781595  0.19775862    -0.21450
C2877       C  0.93083693  0.99245350  0.20058004    -0.09510
C2878       C  0.92458441  0.97160349  0.19807172     0.29370
F2879       F  0.90410249  0.96611049  0.20027538    -0.20030
H2880       H  0.93456279  0.93985463  0.19535056     0.17730
H2881       H  0.95708060  0.01385030  0.19976602     0.17740
F2882       F  0.98782262  0.98749852  0.19534466    -0.20020
C2883       C  0.03138635  0.98139954  0.25235689    -0.21450
C2884       C  0.03025639  0.95989545  0.25660818    -0.09500
C2885       C  0.03299289  0.95281829  0.27723627     0.29360
C2886       C  0.03449151  0.96707583  0.29361765    -0.21450
C2887       C  0.03331168  0.98861045  0.28970683    -0.09510
C2888       C  0.03295094  0.99577602  0.26886801     0.29370
F2889       F  0.03143997  0.01651473  0.26464908    -0.20030
H2890       H  0.02899611  0.98710191  0.23656002     0.17730
H2891       H  0.03472497  0.96127205  0.30955992     0.17740
F2892       F  0.03214643  0.93208500  0.28171522    -0.20020
C2893       C  0.52729316  0.22523530  0.96361203    -0.21450
C2894       C  0.53292170  0.20398950  0.96400443    -0.09500
C2895       C  0.55415002  0.19853515  0.96125688     0.29360
C2896       C  0.56958965  0.21397879  0.96080784    -0.21450
C2897       C  0.56420900  0.23511988  0.96297535    -0.09510
C2898       C  0.54284868  0.24077401  0.96312149     0.29370
F2899       F  0.53710277  0.26106634  0.96535713    -0.20030
H2900       H  0.51105675  0.22982179  0.96571527     0.17730
H2901       H  0.58594447  0.20930062  0.96042690     0.17740
F2902       F  0.56015728  0.17818872  0.96069196    -0.20020
C2903       C  0.41079403  0.11605865  0.96689310    -0.21450
C2904       C  0.41628051  0.12935186  0.98343011    -0.09500
C2905       C  0.40592095  0.12695213  0.00276307     0.29360
C2906       C  0.39261075  0.10980352  0.00626479    -0.21450
C2907       C  0.38960292  0.09489086  0.99052866    -0.09510
C2908       C  0.39783391  0.09875459  0.97046535     0.29370
F2909       F  0.39546755  0.08438861  0.95503882    -0.20030
H2910       H  0.41897364  0.11722013  0.95207042     0.17730
H2911       H  0.38662998  0.10696550  0.02187116     0.17740
F2912       F  0.41104142  0.13947517  0.01909584    -0.20020
C2913       C  0.50690084  0.11022305  0.06578597    -0.21450
C2914       C  0.49025472  0.11011067  0.05129145    -0.09500
C2915       C  0.47364345  0.09593241  0.05404367     0.29360
C2916       C  0.47476863  0.08071723  0.06958705    -0.21450
C2917       C  0.49237060  0.07941699  0.08272080    -0.09510
C2918       C  0.50800886  0.09486620  0.08148286     0.29370
F2919       F  0.52528812  0.09380921  0.09390233    -0.20030
H2920       H  0.51987950  0.12099690  0.06385062     0.17730
H2921       H  0.46247739  0.06902813  0.07049651     0.17740
F2922       F  0.45696899  0.09590763  0.04076660    -0.20020
C2923       C  0.41324961  0.03705004  0.09051489    -0.21450
C2924       C  0.42014490  0.01654289  0.09481627    -0.09500
C2925       C  0.41061897  0.99999227  0.08393583     0.29360
C2926       C  0.39634444  0.00411251  0.06760840    -0.21450
C2927       C  0.39105294  0.02475725  0.06196296    -0.09510
C2928       C  0.39881127  0.04114905  0.07432680     0.29370
F2929       F  0.39472322  0.06126522  0.06894045    -0.20030
H2930       H  0.42079542  0.05012952  0.09819646     0.17730
H2931       H  0.39108694  0.99123982  0.05794335     0.17740
F2932       F  0.41741729  0.98010718  0.08694462    -0.20020
C2933       C  0.53958354  0.99452897  0.21771682    -0.21450
C2934       C  0.56110030  0.99274441  0.21297105    -0.09500
C2935       C  0.56691096  0.98946475  0.19202326     0.29360
C2936       C  0.55180598  0.98972684  0.17605981    -0.21450
C2937       C  0.53046825  0.99337811  0.18046661    -0.09510
C2938       C  0.52433866  0.99478564  0.20162742     0.29370
F2939       F  0.50402603  0.99880087  0.20661355    -0.20030
H2940       H  0.53474688  0.99763899  0.23364947     0.17730
H2941       H  0.55704536  0.98863897  0.15997728     0.17740
F2942       F  0.58751431  0.98789905  0.18678836    -0.20020
C2943       C  0.46446106  0.09404081  0.18381204    -0.21450
C2944       C  0.46798307  0.08990920  0.20511663    -0.09500
C2945       C  0.46724325  0.06912801  0.21229181     0.29360
C2946       C  0.46604012  0.05270429  0.19784435    -0.21450
C2947       C  0.46529170  0.05699147  0.17630902    -0.09510
C2948       C  0.46315814  0.07771610  0.16948219     0.29370
F2949       F  0.46251929  0.08221721  0.14871420    -0.20030
H2950       H  0.46485320  0.10995305  0.17799209     0.17730
H2951       H  0.46806074  0.03678977  0.20329544     0.17740
F2952       F  0.47057666  0.06463168  0.23278625    -0.20020
C2953       C  0.54259799  0.05401815  0.26881791    -0.21450
C2954       C  0.56364265  0.05946748  0.27252188    -0.09500
C2955       C  0.56861363  0.08036370  0.27709459     0.29360
C2956       C  0.55308405  0.09580960  0.27598279    -0.21450
C2957       C  0.53247018  0.09062510  0.27022037    -0.09510
C2958       C  0.52712904  0.06951981  0.26739629     0.29370
F2959       F  0.50756753  0.06419475  0.26082535    -0.20030
H2960       H  0.53852480  0.03807635  0.26482961     0.17730
H2961       H  0.55755884  0.11204353  0.27773343     0.17740
F2962       F  0.58878835  0.08603575  0.28097048    -0.20020
C2963       C  0.41500113  0.18156029  0.26086905    -0.21450
C2964       C  0.42408235  0.17179637  0.24346786    -0.09500
C2965       C  0.41617479  0.17633025  0.22339559     0.29360
C2966       C  0.40097261  0.19194869  0.22067380    -0.21450
C2967       C  0.39367978  0.20334688  0.23790455    -0.09510
C2968       C  0.40000648  0.19734879  0.25813355     0.29370
F2969       F  0.39364311  0.20850291  0.27501882    -0.20030
H2970       H  0.42135277  0.17879574  0.27636963     0.17730
H2971       H  0.39672122  0.19672323  0.20495294     0.17740
F2972       F  0.42515931  0.16763472  0.20624626    -0.20020
C2973       C  0.48316949  0.22000854  0.31652586    -0.21450
C2974       C  0.49756228  0.21760096  0.33310798    -0.09500
C2975       C  0.50700996  0.19783195  0.33594559     0.29360
C2976       C  0.50343861  0.18168914  0.32120286    -0.21450
C2977       C  0.48999834  0.18507151  0.30397493    -0.09510
C2978       C  0.47928025  0.20410322  0.30242162     0.29370
F2979       F  0.46641484  0.20808951  0.28588227    -0.20030
H2980       H  0.47571225  0.23485929  0.31343476     0.17730
H2981       H  0.51213045  0.16720577  0.32248222     0.17740
F2982       F  0.52074388  0.19460760  0.35186515    -0.20020
C2983       C  0.47153547  0.21913160  0.06394175    -0.21450
C2984       C  0.47045816  0.23993637  0.05711328    -0.09500
C2985       C  0.46670934  0.24413392  0.03583993     0.29360
C2986       C  0.46592937  0.22762720  0.02138719    -0.21450
C2987       C  0.46916542  0.20693887  0.02809122    -0.09510
C2988       C  0.47096154  0.20275646  0.04959846     0.29370
F2989       F  0.47405918  0.18292299  0.05653538    -0.20030
H2990       H  0.47472523  0.21564644  0.08024642     0.17730
H2991       H  0.46487748  0.23115932  0.00483565     0.17740
F2992       F  0.46615547  0.26414083  0.02879050    -0.20020
C2993       C  0.54075305  0.30119213  0.01660496    -0.21450
C2994       C  0.56203695  0.30486291  0.02097474    -0.09500
C2995       C  0.56788641  0.31219110  0.04078955     0.29360
C2996       C  0.55297793  0.31345754  0.05672848    -0.21450
C2997       C  0.53210423  0.30729727  0.05311027    -0.09510
C2998       C  0.52574935  0.30252774  0.03257515     0.29370
F2999       F  0.50579997  0.29614704  0.02862353    -0.20030
H3000       H  0.53610101  0.29519189  0.00145228     0.17730
H3001       H  0.55819826  0.31707700  0.07245248     0.17740
F3002       F  0.58841319  0.31573479  0.04535437    -0.20020
C3003       C  0.51816917  0.18480449  0.16227597    -0.21450
C3004       C  0.49885420  0.18050357  0.17202890    -0.09500
C3005       C  0.48060471  0.19065143  0.16485800     0.29360
C3006       C  0.48216807  0.20678925  0.15029197    -0.21450
C3007       C  0.50180757  0.21274129  0.14249607    -0.09510
C3008       C  0.51968726  0.20099103  0.14760818     0.29370
F3009       F  0.53888210  0.20675187  0.14038364    -0.20030
H3010       H  0.53243149  0.17723450  0.16760439     0.17730
H3011       H  0.46827825  0.21576501  0.14637703     0.17740
F3012       F  0.46155921  0.18631092  0.17336143    -0.20020
C3013       C  0.41535061  0.29361002  0.14721130    -0.21450
C3014       C  0.42738743  0.27671245  0.14008624    -0.09500
C3015       C  0.42175716  0.25633993  0.14632464     0.29360
C3016       C  0.40584901  0.25317924  0.16110002    -0.21450
C3017       C  0.39557237  0.27027368  0.17012315    -0.09510
C3018       C  0.39970072  0.29046207  0.16234201     0.29370
F3019       F  0.39027489  0.30732335  0.17110758    -0.20030
H3020       H  0.41963474  0.30942730  0.14291627     0.17730
H3021       H  0.40327544  0.23758621  0.16722251     0.17740
F3022       F  0.43314793  0.23967022  0.13977608    -0.20020
C3023       C  0.47662930  0.35887345  0.14845160    -0.21450
C3024       C  0.49287111  0.34767940  0.13878242    -0.09500
C3025       C  0.51381437  0.35322224  0.14311272     0.29360
C3026       C  0.51838584  0.36813855  0.15850862    -0.21450
C3027       C  0.50212792  0.37807304  0.16942878    -0.09510
C3028       C  0.48120920  0.37415417  0.16349309     0.29370
F3029       F  0.46517402  0.38341731  0.17392298    -0.20030
H3030       H  0.46041505  0.35450441  0.14572635     0.17730
H3031       H  0.53456976  0.37059748  0.16315068     0.17740
F3032       F  0.52983110  0.34246429  0.13419861    -0.20020
C3033       C  0.58015383  0.29812063  0.17863159    -0.21450
C3034       C  0.59311981  0.28051847  0.18034567    -0.09500
C3035       C  0.59207840  0.26485570  0.16506925     0.29360
C3036       C  0.57640933  0.26571190  0.14969928    -0.21450
C3037       C  0.56170786  0.28213850  0.14960883    -0.09510
C3038       C  0.56460899  0.29903774  0.16333635     0.29370
F3039       F  0.55136821  0.31565383  0.16312118    -0.20030
H3040       H  0.58097785  0.31042403  0.19023107     0.17730
H3041       H  0.57456736  0.25257041  0.13920890     0.17740
F3042       F  0.60443330  0.24762847  0.16651439    -0.20020
C3043       C  0.59894830  0.26422309  0.32354208    -0.21450
C3044       C  0.60332676  0.28428590  0.31572896    -0.09500
C3045       C  0.59362022  0.30165359  0.32492672     0.29360
C3046       C  0.57808840  0.29879677  0.34008222    -0.21450
C3047       C  0.57195154  0.27860790  0.34614743    -0.09510
C3048       C  0.58332606  0.26135380  0.33873768     0.29370
F3049       F  0.57731392  0.24165840  0.34388758    -0.20030
H3050       H  0.60586410  0.25063302  0.31619080     0.17730
H3051       H  0.56916176  0.31223159  0.34528063     0.17740
F3052       F  0.59708623  0.32113180  0.31721046    -0.20020
C3053       C  0.58897491  0.35722177  0.26504686    -0.21450
C3054       C  0.60009812  0.34886966  0.24812162    -0.09500
C3055       C  0.59649051  0.35712156  0.22796422     0.29360
C3056       C  0.58051692  0.37189405  0.22457965    -0.21450
C3057       C  0.56764154  0.37824257  0.24118452    -0.09510
C3058       C  0.57276814  0.37164552  0.26163388     0.29370
F3059       F  0.56069709  0.37753693  0.27807682    -0.20030
H3060       H  0.59113031  0.35078173  0.28059803     0.17730
H3061       H  0.57673701  0.37651943  0.20870078     0.17740
F3062       F  0.60682528  0.34913274  0.21123361    -0.20020
C3063       C  0.57298365  0.21328247  0.25965171    -0.21450
C3064       C  0.58876714  0.21559085  0.24450115    -0.09500
C3065       C  0.59089975  0.20011925  0.22890373     0.29360
C3066       C  0.57595703  0.18414068  0.22722124    -0.21450
C3067       C  0.55893104  0.18348715  0.24103472    -0.09510
C3068       C  0.55812300  0.19747625  0.25787437     0.29370
F3069       F  0.54187872  0.19690347  0.27161855    -0.20030
H3070       H  0.57117602  0.22461134  0.27208449     0.17730
H3071       H  0.57665936  0.17348233  0.21409939     0.17740
F3072       F  0.60618665  0.20142372  0.21417792    -0.20020
C3073       C  0.54674138  0.95583412  0.79811821    -0.21450
C3074       C  0.54632553  0.96243765  0.77718953    -0.09500
C3075       C  0.54480261  0.98386114  0.77267079     0.29360
C3076       C  0.54103124  0.99811587  0.78885904    -0.21450
C3077       C  0.53848364  0.99097193  0.80952572    -0.09510
C3078       C  0.54278618  0.96994062  0.81421084     0.29370
F3079       F  0.54117883  0.96265275  0.83411594    -0.20030
H3080       H  0.54772368  0.93932883  0.80182785     0.17730
H3081       H  0.53782913  0.01427793  0.78492883     0.17740
F3082       F  0.54403764  0.99057599  0.75252362    -0.20020
C3083       C  0.44831259  0.05235041  0.80790259    -0.21450
C3084       C  0.46996012  0.05233879  0.80389015    -0.09500
C3085       C  0.47690873  0.05354510  0.78303979     0.29360
C3086       C  0.46232411  0.05278178  0.76648925    -0.21450
C3087       C  0.44072269  0.05053745  0.77060615    -0.09510
C3088       C  0.43380934  0.05152007  0.79149263     0.29370
F3089       F  0.41306102  0.04990345  0.79611330    -0.20030
H3090       H  0.44266353  0.05118202  0.82385079     0.17730
H3091       H  0.46806387  0.05185496  0.75057184     0.17740
F3092       F  0.49776034  0.05301829  0.77867443    -0.20020
C3093       C  0.42706967  0.00863978  0.89737583    -0.21450
C3094       C  0.44062238  0.02584788  0.89623090    -0.09500
C3095       C  0.43728595  0.04310984  0.90926437     0.29360
C3096       C  0.42213656  0.04218745  0.92486054    -0.21450
C3097       C  0.41022046  0.02396769  0.92780264    -0.09510
C3098       C  0.41185628  0.00763497  0.91313281     0.29370
F3099       F  0.40045665  0.98984553  0.91531477    -0.20030
H3100       H  0.42967311  0.99512966  0.88753349     0.17730
H3101       H  0.42085265  0.05516077  0.93563219     0.17740
F3102       F  0.45012617  0.06001583  0.90825398    -0.20020
C3103       C  0.51643874  0.10935282  0.90164605    -0.21450
C3104       C  0.50200984  0.09772554  0.88981415    -0.09500
C3105       C  0.48048055  0.10241693  0.89149224     0.29360
C3106       C  0.47337606  0.11669970  0.90645067    -0.21450
C3107       C  0.48766048  0.12693458  0.91959847    -0.09510
C3108       C  0.50933981  0.12397508  0.91639028     0.29370
F3109       F  0.52350202  0.13315165  0.92934708    -0.20030
H3110       H  0.53300611  0.10552659  0.90111056     0.17730
H3111       H  0.45664050  0.11851197  0.90890275     0.17740
F3112       F  0.46616510  0.09133913  0.88033181    -0.20020
C3113       C  0.51371007  0.92518203  0.08239286    -0.21450
C3114       C  0.49879265  0.91590474  0.06913927    -0.09500
C3115       C  0.47742574  0.92058605  0.07209037     0.29360
C3116       C  0.47139180  0.93598939  0.08644671    -0.21450
C3117       C  0.48650521  0.94654061  0.09846934    -0.09510
C3118       C  0.50761084  0.94019383  0.09716252     0.29370
F3119       F  0.52266336  0.95052112  0.10808579    -0.20030
H3120       H  0.53028725  0.92225950  0.07995865     0.17730
H3121       H  0.45514146  0.94100646  0.08681153     0.17740
F3122       F  0.46269730  0.91225970  0.05918729    -0.20020
C3123       C  0.48305499  0.94188113  0.92657551    -0.21450
C3124       C  0.50142754  0.93425287  0.93595249    -0.09500
C3125       C  0.52103533  0.94160663  0.92911085     0.29360
C3126       C  0.52214401  0.95726301  0.91379710    -0.21450
C3127       C  0.50370143  0.96555544  0.90501450    -0.09510
C3128       C  0.48412273  0.95740006  0.91118314     0.29370
F3129       F  0.46597497  0.96585139  0.90384091    -0.20030
H3130       H  0.46781995  0.93675702  0.93213066     0.17730
H3131       H  0.53733214  0.96348433  0.90936956     0.17740
F3132       F  0.53900184  0.93436848  0.93799117    -0.20020
C3133       C  0.42372859  0.92925584  0.98367369    -0.21450
C3134       C  0.43843146  0.93059575  0.00009619    -0.09500
C3135       C  0.43506087  0.94506840  0.01628148     0.29360
C3136       C  0.41920990  0.95986319  0.01436592    -0.21450
C3137       C  0.40645022  0.96026631  0.99650959    -0.09510
C3138       C  0.40775667  0.94407871  0.98184256     0.29370
F3139       F  0.39542447  0.94411628  0.96449083    -0.20030
H3140       H  0.42575369  0.91805237  0.97116387     0.17730
H3141       H  0.41800349  0.97208878  0.02601161     0.17740
F3142       F  0.44815703  0.94619263  0.03301512    -0.20020
C3143       C  0.56888756  0.99460679  0.05088964    -0.21450
C3144       C  0.58284933  0.01146778  0.04941271    -0.09500
C3145       C  0.58338556  0.02646021  0.06538088     0.29360
C3146       C  0.56826968  0.02591837  0.08121800    -0.21450
C3147       C  0.55262343  0.01037862  0.08125179    -0.09510
C3148       C  0.55399787  0.99388242  0.06677520     0.29370
F3149       F  0.53998938  0.97787814  0.06692921    -0.20030
H3150       H  0.56867547  0.98261840  0.03893955     0.17730
H3151       H  0.56775301  0.03865534  0.09232921     0.17740
F3152       F  0.59694170  0.04280279  0.06443155    -0.20020
C3153       C  0.59110833  0.99695733  0.90539583    -0.21450
C3154       C  0.60310407  0.01000395  0.91830549    -0.09500
C3155       C  0.60256729  0.03174191  0.91492629     0.29360
C3156       C  0.58829218  0.04034704  0.90057738    -0.21450
C3157       C  0.57495304  0.02732453  0.88900124    -0.09510
C3158       C  0.57734686  0.00552785  0.89060583     0.29370
F3159       F  0.56422961  0.99258747  0.87999203    -0.20030
H3160       H  0.59094340  0.98024338  0.90811136     0.17730
H3161       H  0.58622743  0.05713754  0.90001152     0.17740
F3162       F  0.61357205  0.04475339  0.92761867    -0.20020
C3163       C  0.57847464  0.91523294  0.98040102    -0.21450
C3164       C  0.57225325  0.91283772  0.00137483    -0.09500
C3165       C  0.58474317  0.92148133  0.01721302     0.29360
C3166       C  0.60120015  0.93501618  0.01190376    -0.21450
C3167       C  0.60517828  0.94009117  0.99082297    -0.09510
C3168       C  0.59496590  0.92868102  0.97510992     0.29370
F3169       F  0.59819151  0.93344848  0.95465348    -0.20030
H3170       H  0.56889613  0.90875345  0.96797369     0.17730
H3171       H  0.60868073  0.94391998  0.02424079     0.17740
F3172       F  0.57894951  0.91965165  0.03756570    -0.20020
C3173       C  0.54269805  0.08529246  0.96636874    -0.21450
C3174       C  0.54520814  0.10232795  0.98005769    -0.09500
C3175       C  0.56390348  0.10396671  0.99167943     0.29360
C3176       C  0.57859490  0.08783205  0.99121154    -0.21450
C3177       C  0.57498245  0.06974528  0.97925078    -0.09510
C3178       C  0.55737235  0.06911004  0.96595817     0.29370
F3179       F  0.55354945  0.05235365  0.95353907    -0.20030
H3180       H  0.52871932  0.08380992  0.95680323     0.17730
H3181       H  0.59228366  0.08905807  0.00121570     0.17740
F3182       F  0.56747805  0.12042823  0.00455529    -0.20020
C3183       C  0.47660566  0.43830966  0.59073052    -0.21450
C3184       C  0.49106493  0.44984749  0.60254893    -0.09500
C3185       C  0.51240947  0.44419751  0.60209770     0.29360
C3186       C  0.51946335  0.42907864  0.58794863    -0.21450
C3187       C  0.50523829  0.41903331  0.57456535    -0.09510
C3188       C  0.48359531  0.42271321  0.57707215     0.29370
F3189       F  0.46950889  0.41347093  0.56408523    -0.20030
H3190       H  0.46018565  0.44275339  0.59054037     0.17730
H3191       H  0.53620221  0.42686728  0.58587276     0.17740
F3192       F  0.52678034  0.45545095  0.61302794    -0.20020
C3193       C  0.41220242  0.51004213  0.59343599    -0.21450
C3194       C  0.42575634  0.52564185  0.60088150    -0.09500
C3195       C  0.42147553  0.54659709  0.59553429     0.29360
C3196       C  0.40551006  0.55152221  0.58118045    -0.21450
C3197       C  0.39369087  0.53565478  0.57168494    -0.09510
C3198       C  0.39638887  0.51495751  0.57883779     0.29370
F3199       F  0.38570184  0.49913699  0.56954299    -0.20030
H3200       H  0.41544705  0.49378366  0.59690055     0.17730
H3201       H  0.40422363  0.56744469  0.57552644     0.17740
F3202       F  0.43440020  0.56206647  0.60225755    -0.20020
C3203       C  0.48199830  0.60488931  0.39792561    -0.21450
C3204       C  0.50269878  0.59932680  0.39256492    -0.09500
C3205       C  0.51941373  0.61033748  0.40173473     0.29360
C3206       C  0.51546258  0.62498131  0.41757302    -0.21450
C3207       C  0.49483364  0.62896505  0.42435886    -0.09510
C3208       C  0.47805843  0.61956383  0.41368923     0.29370
F3209       F  0.45804663  0.62240501  0.42041700    -0.20030
H3210       H  0.46890633  0.59615333  0.39152960     0.17730
H3211       H  0.52863125  0.63158042  0.42604550     0.17740
F3212       F  0.53955952  0.60475409  0.39763582    -0.20020
C3213       C  0.42142364  0.62829035  0.51553752    -0.21450
C3214       C  0.42650294  0.63345298  0.49475576    -0.09500
C3215       C  0.41370895  0.62567598  0.47860672     0.29360
C3216       C  0.39758294  0.61132152  0.48309176    -0.21450
C3217       C  0.39406231  0.60440711  0.50370348    -0.09510
C3218       C  0.40541695  0.61388715  0.52000604     0.29370
F3219       F  0.40304401  0.60703130  0.53998568    -0.20030
H3220       H  0.43144156  0.63356671  0.52818961     0.17730
H3221       H  0.38959819  0.60371407  0.47021269     0.17740
F3222       F  0.41862773  0.62970119  0.45834109    -0.20020
C3223       C  0.51865776  0.61196849  0.57129170    -0.21450
C3224       C  0.50043220  0.61474823  0.55913888    -0.09500
C3225       C  0.48223991  0.60334703  0.56404017     0.29360
C3226       C  0.48313584  0.58751133  0.57893305    -0.21450
C3227       C  0.50204247  0.58305394  0.58923741    -0.09510
C3228       C  0.51951179  0.59607569  0.58631577     0.29370
F3229       F  0.53801432  0.59183635  0.59602625    -0.20030
H3230       H  0.53284105  0.62062120  0.56773056     0.17730
H3231       H  0.46950649  0.57763628  0.58125145     0.17740
F3232       F  0.46411700  0.60633886  0.55321409    -0.20020
C3233       C  0.58668588  0.43149339  0.51461371    -0.21450
C3234       C  0.57322232  0.42281795  0.49961907    -0.09500
C3235       C  0.57723198  0.42658142  0.47826517     0.29360
C3236       C  0.59291957  0.44069554  0.47218412    -0.21450
C3237       C  0.60454950  0.45146416  0.48733096    -0.09510
C3238       C  0.60218069  0.44584073  0.50854896     0.29370
F3239       F  0.61286673  0.45638138  0.52359834    -0.20030
H3240       H  0.58358849  0.42916582  0.53112035     0.17730
H3241       H  0.59407695  0.44516093  0.45586460     0.17740
F3242       F  0.56425155  0.41858197  0.46343520    -0.20020
C3243       C  0.57301875  0.50236941  0.54577527    -0.21450
C3244       C  0.58955837  0.51666768  0.54814665    -0.09500
C3245       C  0.59175427  0.52745058  0.56708822     0.29360
C3246       C  0.57621057  0.52557797  0.58248413    -0.21450
C3247       C  0.55840878  0.51285012  0.57917703    -0.09510
C3248       C  0.55765409  0.50030334  0.56112865     0.29370
F3249       F  0.54137355  0.48708198  0.55752771    -0.20030
H3250       H  0.57137312  0.49354973  0.53140705     0.17730
H3251       H  0.57741552  0.53522507  0.59632959     0.17740
F3252       F  0.60773060  0.54120561  0.56989952    -0.20020
C3253       C  0.57745595  0.58578265  0.46975381    -0.21450
C3254       C  0.59308581  0.58364133  0.48515612    -0.09500
C3255       C  0.59461334  0.59891361  0.50098161     0.29360
C3256       C  0.57898946  0.61415241  0.50289838    -0.21450
C3257       C  0.56182141  0.61419964  0.48915376    -0.09510
C3258       C  0.56183624  0.60079004  0.47181552     0.29370
F3259       F  0.54586527  0.60117647  0.45770511    -0.20030
H3260       H  0.57621615  0.57472525  0.45700446     0.17730
H3261       H  0.57933833  0.62464461  0.51616965     0.17740
F3262       F  0.60998611  0.59804695  0.51569504    -0.20020
C3263       C  0.59543605  0.50535571  0.40438642    -0.21450
C3264       C  0.60635564  0.52041311  0.41609926    -0.09500
C3265       C  0.60254537  0.54167174  0.41186673     0.29360
C3266       C  0.58658061  0.54761998  0.39785119    -0.21450
C3267       C  0.57443497  0.53250193  0.38749798    -0.09510
C3268       C  0.57973601  0.51130449  0.39009768     0.29370
F3269       F  0.56781323  0.49624444  0.38101688    -0.20030
H3270       H  0.59753605  0.48891704  0.40788813     0.17730
H3271       H  0.58236853  0.56397447  0.39662706     0.17740
F3272       F  0.61220586  0.55662371  0.42343549    -0.20020
C3273       C  0.30018385  0.94771587  0.01368721    -0.21450
C3274       C  0.27945120  0.95268773  0.00801972    -0.09500
C3275       C  0.27347272  0.97384260  0.00689912     0.29360
C3276       C  0.28868608  0.98958716  0.00896890    -0.21450
C3277       C  0.30984862  0.98434168  0.01227385    -0.09510
C3278       C  0.31527640  0.96337437  0.01574482     0.29370
F3279       F  0.33567339  0.95788280  0.01869078    -0.20030
H3280       H  0.30512232  0.93154559  0.01473101     0.17730
H3281       H  0.28434337  0.00563890  0.00572770     0.17740
F3282       F  0.25365790  0.97921663  0.00115750    -0.20020
C3283       C  0.23070129  0.11013470  0.82964393    -0.21450
C3284       C  0.24601922  0.09909307  0.84081470    -0.09500
C3285       C  0.26714112  0.10543370  0.83942398     0.29360
C3286       C  0.27327245  0.11938510  0.82372705    -0.21450
C3287       C  0.25827160  0.12693327  0.80959821    -0.09510
C3288       C  0.23680172  0.12396274  0.81388379     0.29370
F3289       F  0.22198936  0.13144560  0.80050972    -0.20030
H3290       H  0.21438169  0.10538634  0.83047898     0.17730
H3291       H  0.28986192  0.12153480  0.82062955     0.17740
F3292       F  0.28219666  0.09503340  0.85032830    -0.20020
C3293       C  0.25671129  0.95207431  0.80805270    -0.21450
C3294       C  0.24381923  0.96972350  0.80525074    -0.09500
C3295       C  0.23030994  0.97030341  0.78774235     0.29360
C3296       C  0.23109282  0.95451935  0.77268205    -0.21450
C3297       C  0.24529748  0.93777936  0.77459176    -0.09510
C3298       C  0.25747463  0.93626156  0.79297523     0.29370
F3299       F  0.27107790  0.92019059  0.79592090    -0.20030
H3300       H  0.26706534  0.95093857  0.82146548     0.17730
H3301       H  0.22124443  0.95603992  0.75892691     0.17740
F3302       F  0.21714473  0.98666538  0.78441149    -0.20020
C3303       C  0.32383994  0.04432300  0.77515023    -0.21450
C3304       C  0.34141882  0.03124292  0.77746120    -0.09500
C3305       C  0.34345666  0.01958783  0.79618423     0.29360
C3306       C  0.32739544  0.01971580  0.81120050    -0.21450
C3307       C  0.30900631  0.03136793  0.80790032    -0.09510
C3308       C  0.30783311  0.04441039  0.79010102     0.29370
F3309       F  0.29079865  0.05672340  0.78666967    -0.20030
H3310       H  0.32189459  0.05380283  0.76122060     0.17730
H3311       H  0.32883070  0.00970989  0.82481708     0.17740
F3312       F  0.36042357  0.00719882  0.79960968    -0.20020
C3313       C  0.16489229  0.03511460  0.82243093    -0.21450
C3314       C  0.17859141  0.02329124  0.83489895    -0.09500
C3315       C  0.17668999  0.00140766  0.83519715     0.29360
C3316       C  0.16319815  0.99147429  0.82110123    -0.21450
C3317       C  0.15103414  0.00329139  0.80712400    -0.09510
C3318       C  0.15087232  0.02517611  0.80886035     0.29370
F3319       F  0.13966447  0.03694922  0.79511160    -0.20030
H3320       H  0.16646535  0.05195550  0.82174047     0.17730
H3321       H  0.16390137  0.97463357  0.81957386     0.17740
F3322       F  0.19017291  0.98960305  0.84670984    -0.20020
C3323       C  0.22871072  0.95872719  0.90104179    -0.21450
C3324       C  0.22763131  0.98001724  0.90604742    -0.09500
C3325       C  0.22067360  0.98587182  0.92618412     0.29360
C3326       C  0.21727678  0.97064243  0.94158336    -0.21450
C3327       C  0.22059019  0.94952794  0.93703049    -0.09510
C3328       C  0.22514522  0.94359767  0.91635525     0.29370
F3329       F  0.22845164  0.92319657  0.91157673    -0.20030
H3330       H  0.23356093  0.95377735  0.88558726     0.17730
H3331       H  0.21423930  0.97548819  0.95752476     0.17740
F3332       F  0.21922507  0.00629146  0.93167298    -0.20020
C3333       C  0.28147357  0.04921112  0.93134055    -0.21450
C3334       C  0.28920811  0.04730884  0.91083031    -0.09500
C3335       C  0.31092096  0.04821713  0.90740196     0.29360
C3336       C  0.32470611  0.04877394  0.92436189    -0.21450
C3337       C  0.31709135  0.04790888  0.94500985    -0.09510
C3338       C  0.29534287  0.04938178  0.94843183     0.29370
F3339       F  0.28744778  0.04825544  0.96811523    -0.20030
H3340       H  0.26472820  0.04843818  0.93423624     0.17730
H3341       H  0.34142936  0.04778824  0.92136167     0.17740
F3342       F  0.31880790  0.04689928  0.88772030    -0.20020
C3343       C  0.96570924  0.55088332  0.18538200    -0.21450
C3344       C  0.96824755  0.55274003  0.16368724    -0.09500
C3345       C  0.96908977  0.57274752  0.15459779     0.29360
C3346       C  0.96989449  0.59049685  0.16719681    -0.21450
C3347       C  0.96961990  0.58860612  0.18905567    -0.09510
C3348       C  0.96622430  0.56873908  0.19806216     0.29370
F3349       F  0.96597770  0.56627539  0.21915936    -0.20030
H3350       H  0.96552820  0.53558270  0.19266087     0.17730
H3351       H  0.97227534  0.60560945  0.15990384     0.17740
F3352       F  0.97160324  0.57493793  0.13360545    -0.20020
C3353       C  0.97369891  0.42770926  0.08022189    -0.21450
C3354       C  0.98972111  0.43757535  0.09164339    -0.09500
C3355       C  0.01065245  0.43134808  0.08823668     0.29360
C3356       C  0.01554261  0.41726215  0.07212900    -0.21450
C3357       C  0.99960532  0.40897594  0.05943206    -0.09510
C3358       C  0.97855549  0.41349941  0.06428551     0.29370
F3359       F  0.96283496  0.40616954  0.05193708    -0.20030
H3360       H  0.95756289  0.43277048  0.08203992     0.17730
H3361       H  0.03186220  0.41439839  0.06831417     0.17740
F3362       F  0.02655512  0.44112812  0.09844583    -0.20020
C3363       C  0.07658886  0.48419655  0.04757255    -0.21450
C3364       C  0.09086451  0.50087040  0.04700403    -0.09500
C3365       C  0.09102977  0.51551846  0.06325939     0.29360
C3366       C  0.07501670  0.51517706  0.07815823    -0.21450
C3367       C  0.05882798  0.50025251  0.07682725    -0.09510
C3368       C  0.06068890  0.48376096  0.06245022     0.29370
F3369       F  0.04612655  0.46828402  0.06150449    -0.20030
H3370       H  0.07664699  0.47248583  0.03534583     0.17730
H3371       H  0.07416817  0.52782263  0.08935393     0.17740
F3372       F  0.10489115  0.53163243  0.06317145    -0.20020
C3373       C  0.09890838  0.42627591  0.00157142    -0.21450
C3374       C  0.10272278  0.43345219  0.98108509    -0.09500
C3375       C  0.09157495  0.42438390  0.96446915     0.29360
C3376       C  0.07503382  0.41056283  0.96859201    -0.21450
C3377       C  0.06951019  0.40546290  0.98928207    -0.09510
C3378       C  0.08247207  0.41225171  0.00568047     0.29370
F3379       F  0.07735978  0.40786163  0.02582584    -0.20030
H3380       H  0.10696109  0.43347902  0.01464309     0.17730
H3381       H  0.06509378  0.40561594  0.95575371     0.17740
F3382       F  0.09439179  0.43143103  0.94461544    -0.20020
C3383       C  0.21653592  0.55910803  0.95423855    -0.21450
C3384       C  0.20882544  0.57951453  0.95162537    -0.09500
C3385       C  0.18720248  0.58258958  0.94875535     0.29360
C3386       C  0.17332638  0.56587550  0.95099598    -0.21450
C3387       C  0.18080506  0.54588316  0.95619938    -0.09510
C3388       C  0.20258892  0.54227482  0.95647605     0.29370
F3389       F  0.21029175  0.52319044  0.96171192    -0.20030
H3390       H  0.23313900  0.55655566  0.95697769     0.17730
H3391       H  0.15658757  0.56894150  0.95061567     0.17740
F3392       F  0.17935483  0.60217807  0.94638459    -0.20020
C3393       C  0.05387779  0.59955180  0.25338016    -0.21450
C3394       C  0.03232841  0.59537140  0.25482399    -0.09500
C3395       C  0.02565617  0.57552566  0.26169564     0.29360
C3396       C  0.04039135  0.55946170  0.26464391    -0.21450
C3397       C  0.06177709  0.56319629  0.26088145    -0.09510
C3398       C  0.06850584  0.58367215  0.25649761     0.29370
F3399       F  0.08915501  0.58781138  0.25312406    -0.20030
H3400       H  0.05933037  0.61479550  0.24835238     0.17730
H3401       H  0.03490891  0.54373690  0.26774266     0.17740
F3402       F  0.00487649  0.57100414  0.26312641    -0.20020
C3403       C  0.06561186  0.47878863  0.18807114    -0.21450
C3404       C  0.05906703  0.48574799  0.20783227    -0.09500
C3405       C  0.03753927  0.48886224  0.21152378     0.29360
C3406       C  0.02329688  0.48798026  0.19479014    -0.21450
C3407       C  0.03054639  0.48419577  0.17438183    -0.09510
C3408       C  0.05150270  0.47813256  0.17139338     0.29370
F3409       F  0.05879892  0.47383038  0.15192245    -0.20030
H3410       H  0.08215014  0.47625706  0.18497634     0.17730
H3411       H  0.00717704  0.49274597  0.19736223     0.17740
F3412       F  0.03078954  0.49580470  0.23040657    -0.20020
C3413       C  0.15439922  0.42813184  0.22436885    -0.21450
C3414       C  0.16728388  0.41885649  0.23954687    -0.09500
C3415       C  0.16246491  0.42183417  0.26085440     0.29360
C3416       C  0.14735333  0.43654000  0.26679799    -0.21450
C3417       C  0.13660804  0.44807808  0.25155211    -0.09510
C3418       C  0.13908394  0.44267900  0.23033176     0.29370
F3419       F  0.12908211  0.45387342  0.21523966    -0.20030
H3420       H  0.15801410  0.42630946  0.20791550     0.17730
H3421       H  0.14593176  0.44068302  0.28316082     0.17740
F3422       F  0.17446205  0.41270574  0.27588574    -0.20020
C3423       C  0.14482743  0.50745030  0.33079735    -0.21450
C3424       C  0.13729271  0.52320585  0.31743254    -0.09500
C3425       C  0.14326605  0.54400904  0.32137785     0.29360
C3426       C  0.15836281  0.54857514  0.33671156    -0.21450
C3427       C  0.16782978  0.53249869  0.34833918    -0.09510
C3428       C  0.16002965  0.51202269  0.34611056     0.29370
F3429       F  0.16923173  0.49602093  0.35665851    -0.20030
H3430       H  0.14091891  0.49127239  0.32772477     0.17730
H3431       H  0.16448717  0.56433734  0.33769103     0.17740
F3432       F  0.13659691  0.55956169  0.30850773    -0.20020
C3433       C  0.22033866  0.48393461  0.03489062    -0.21450
C3434       C  0.21341767  0.48376743  0.05576371    -0.09500
C3435       C  0.19233091  0.47872672  0.06003003     0.29360
C3436       C  0.17790864  0.47703600  0.04367778    -0.21450
C3437       C  0.18434540  0.48016220  0.02296185    -0.09510
C3438       C  0.20581276  0.48231615  0.01850032     0.29370
F3439       F  0.21230773  0.48567949  0.99855551    -0.20030
H3440       H  0.23649546  0.48776373  0.03123531     0.17730
H3441       H  0.16135720  0.47549967  0.04732656     0.17740
F3442       F  0.18524750  0.47766176  0.08003666    -0.20020
C3443       C  0.26060198  0.56296042  0.01285538    -0.21450
C3444       C  0.26746125  0.58337071  0.01700573    -0.09500
C3445       C  0.27652437  0.58782406  0.03657272     0.29360
C3446       C  0.27748454  0.57237464  0.05215682    -0.21450
C3447       C  0.26905070  0.55245675  0.04852644    -0.09510
C3448       C  0.26106786  0.54769092  0.02857820     0.29370
F3449       F  0.25194385  0.52887177  0.02493461    -0.20030
H3450       H  0.25301241  0.55939097  0.99809855     0.17730
H3451       H  0.28316688  0.57647820  0.06759364     0.17740
F3452       F  0.28302562  0.60750045  0.04107309    -0.20020
C3453       C  0.19213105  0.49417630  0.16998363    -0.21450
C3454       C  0.19057961  0.50788932  0.15281594    -0.09500
C3455       C  0.17179224  0.51920862  0.14991878     0.29360
C3456       C  0.15616060  0.51869528  0.16525128    -0.21450
C3457       C  0.15903776  0.50701284  0.18365365    -0.09510
C3458       C  0.17656877  0.49375647  0.18530562     0.29370
F3459       F  0.17934153  0.48138330  0.20237892    -0.20030
H3460       H  0.20605122  0.48471955  0.17233084     0.17730
H3461       H  0.14264633  0.52883727  0.16350365     0.17740
F3462       F  0.16912735  0.53204293  0.13318865    -0.20020
C3463       C  0.26929843  0.44046071  0.15176649    -0.21450
C3464       C  0.25561400  0.45145511  0.13852924    -0.09500
C3465       C  0.23395206  0.44710785  0.13933848     0.29360
C3466       C  0.22600482  0.43334505  0.15447970    -0.21450
C3467       C  0.23962204  0.42328410  0.16851025    -0.09510
C3468       C  0.26141081  0.42623072  0.16645282     0.29370
F3469       F  0.27486985  0.41715020  0.18023716    -0.20030
H3470       H  0.28593186  0.44403919  0.15177121     0.17730
H3471       H  0.20916089  0.43172344  0.15624691     0.17740
F3472       F  0.22028478  0.45805863  0.12722031    -0.20020
C3473       C  0.33251394  0.50828526  0.14494058    -0.21450
C3474       C  0.32157372  0.52423045  0.13451994    -0.09500
C3475       C  0.32732137  0.54514918  0.13836737     0.29360
C3476       C  0.34180584  0.55001968  0.15420035    -0.21450
C3477       C  0.35072430  0.53410558  0.16641374    -0.09510
C3478       C  0.34683326  0.51315098  0.16090637     0.29370
F3479       F  0.35478057  0.49740842  0.17279280    -0.20030
H3480       H  0.32802917  0.49212166  0.14264078     0.17730
H3481       H  0.34418379  0.56622443  0.15844580     0.17740
F3482       F  0.31706948  0.56093811  0.12849034    -0.20020
C3483       C  0.26451705  0.60203752  0.16724939    -0.21450
C3484       C  0.24655303  0.61413219  0.17092218    -0.09500
C3485       C  0.22903523  0.61194782  0.15750730     0.29360
C3486       C  0.22864025  0.59593465  0.14262877    -0.21450
C3487       C  0.24568078  0.58222772  0.14101698    -0.09510
C3488       C  0.26407509  0.58615422  0.15247060     0.29370
F3489       F  0.28089486  0.57324621  0.15084550    -0.20030
H3490       H  0.27833804  0.60370675  0.17701657     0.17730
H3491       H  0.21433038  0.59299499  0.13392417     0.17740
F3492       F  0.21146463  0.62362636  0.16026192    -0.20020
C3493       C  0.22289886  0.61713590  0.30905626    -0.21450
C3494       C  0.24311876  0.62493246  0.30483889    -0.09500
C3495       C  0.25945982  0.62014773  0.31888795     0.29360
C3496       C  0.25596656  0.60614770  0.33557505    -0.21450
C3497       C  0.23606576  0.59708098  0.33875575    -0.09510
C3498       C  0.21935579  0.60345841  0.32584487     0.29370
F3499       F  0.20019247  0.59433951  0.32778998    -0.20030
H3500       H  0.21013616  0.62029299  0.29826199     0.17730
H3501       H  0.26924945  0.60086633  0.34478192     0.17740
F3502       F  0.27927988  0.62690963  0.31501059    -0.20020
C3503       C  0.32704366  0.62356029  0.25852102    -0.21450
C3504       C  0.31636996  0.63222046  0.24137765    -0.09500
C3505       C  0.32397276  0.62847420  0.22108580     0.29360
C3506       C  0.34049165  0.61435636  0.21794148    -0.21450
C3507       C  0.34950333  0.60376623  0.23497473    -0.09510
C3508       C  0.34354873  0.60944688  0.25537592     0.29370
F3509       F  0.35154821  0.59902503  0.27211051    -0.20030
H3510       H  0.32107372  0.62584797  0.27421695     0.17730
H3511       H  0.34436877  0.60973549  0.20211212     0.17740
F3512       F  0.31354601  0.63617958  0.20420309    -0.20020
C3513       C  0.15962458  0.58738225  0.21461088    -0.21450
C3514       C  0.15289587  0.58070049  0.23439686    -0.09500
C3515       C  0.15926479  0.59157308  0.25235148     0.29360
C3516       C  0.17358576  0.60799370  0.25058495    -0.21450
C3517       C  0.18164483  0.61347088  0.23094277    -0.09510
C3518       C  0.17419790  0.60352403  0.21287976     0.29370
F3519       F  0.18260322  0.60798486  0.19387203    -0.20030
H3520       H  0.15506849  0.57887280  0.20068071     0.17730
H3521       H  0.17958180  0.61535506  0.26462501     0.17740
F3522       F  0.15257517  0.58551470  0.27158142    -0.20020
C3523       C  0.95315164  0.55422472  0.80307251    -0.21450
C3524       C  0.97277240  0.54553612  0.79848193    -0.09500
C3525       C  0.97804878  0.54106100  0.77765320     0.29360
C3526       C  0.96277798  0.54278286  0.76198877    -0.21450
C3527       C  0.94217345  0.54860978  0.76719486    -0.09510
C3528       C  0.93791575  0.55592156  0.78747253     0.29370
F3529       F  0.91824095  0.56211929  0.79276927    -0.20030
H3530       H  0.94892928  0.55767321  0.81911547     0.17730
H3531       H  0.96629823  0.53686584  0.74651297     0.17740
F3532       F  0.99688865  0.53228578  0.77300526    -0.20020
C3533       C  0.02962658  0.43496031  0.80114102    -0.21450
C3534       C  0.02840013  0.43865760  0.77961183    -0.09500
C3535       C  0.03075720  0.45907804  0.77183477     0.29360
C3536       C  0.03175715  0.47591011  0.78573159    -0.21450
C3537       C  0.03041509  0.47230986  0.80733127    -0.09510
C3538       C  0.03091441  0.45168250  0.81497394     0.29370
F3539       F  0.03012790  0.44784168  0.83586871    -0.20030
H3540       H  0.02793758  0.41925050  0.80727070     0.17730
H3541       H  0.03108714  0.49169437  0.77960726     0.17740
F3542       F  0.02938000  0.46291087  0.75097688    -0.20020
C3543       C  0.08063657  0.49258875  0.88637641    -0.21450
C3544       C  0.07609931  0.51380643  0.88320276    -0.09500
C3545       C  0.08843044  0.52904386  0.89304172     0.29360
C3546       C  0.10362288  0.52303292  0.90765786    -0.21450
C3547       C  0.10626115  0.50186215  0.91278587    -0.09510
C3548       C  0.09559598  0.48659185  0.90121927     0.29370
F3549       F  0.09753854  0.46608135  0.90631530    -0.20030
H3550       H  0.07088039  0.48070289  0.87921764     0.17730
H3551       H  0.11131934  0.53498025  0.91689837     0.17740
F3552       F  0.08380673  0.54962318  0.89069931    -0.20020
C3553       C  0.01746803  0.44561245  0.90613966    -0.21450
C3554       C  0.99901022  0.45196779  0.89588956    -0.09500
C3555       C  0.98078468  0.43962572  0.89793532     0.29360
C3556       C  0.98059381  0.42259189  0.91180079    -0.21450
C3557       C  0.99853304  0.41767698  0.92361627    -0.09510
C3558       C  0.01725479  0.42863968  0.91987149     0.29370
F3559       F  0.03481334  0.42420232  0.93110514    -0.20030
H3560       H  0.03178518  0.45463144  0.90455819     0.17730
H3561       H  0.96588838  0.41464291  0.91488023     0.17740
F3562       F  0.96260115  0.44531543  0.88838042    -0.20020
C3563       C  0.90794074  0.51433317  0.90904075    -0.21450
C3564       C  0.90953940  0.53030905  0.92410843    -0.09500
C3565       C  0.92521584  0.54562690  0.92174502     0.29360
C3566       C  0.94074116  0.54312481  0.90661568    -0.21450
C3567       C  0.94059652  0.52563786  0.89344942    -0.09510
C3568       C  0.92342089  0.51196609  0.89377221     0.29370
F3569       F  0.92296899  0.49493097  0.88115679    -0.20030
H3570       H  0.89587343  0.50246427  0.91024729     0.17730
H3571       H  0.95378202  0.55400869  0.90621313     0.17740
F3572       F  0.92664404  0.56200784  0.93512258    -0.20020
C3573       C  0.93062039  0.46378716  0.96826175    -0.21450
C3574       C  0.91057041  0.46230374  0.97719755    -0.09500
C3575       C  0.90424722  0.44334935  0.98650645     0.29360
C3576       C  0.91864639  0.42675755  0.98826809    -0.21450
C3577       C  0.93918530  0.42916783  0.98065776    -0.09510
C3578       C  0.94479106  0.44746830  0.97001330     0.29370
F3579       F  0.96438110  0.44985533  0.96195402    -0.20030
H3580       H  0.93567983  0.47804187  0.96058618     0.17730
H3581       H  0.91413577  0.41255052  0.99632513     0.17740
F3582       F  0.88484232  0.44139434  0.99504796    -0.20020
C3583       C  0.90186280  0.49773775  0.06041609    -0.21450
C3584       C  0.89702732  0.51875349  0.05636266    -0.09500
C3585       C  0.90398304  0.53428163  0.07015076     0.29360
C3586       C  0.91808634  0.52905783  0.08607719    -0.21450
C3587       C  0.92500155  0.50835159  0.08842770    -0.09510
C3588       C  0.91569383  0.49249044  0.07652532     0.29370
F3589       F  0.92254893  0.47246686  0.07820492    -0.20030
H3590       H  0.89664380  0.48564136  0.04976890     0.17730
H3591       H  0.92552697  0.54147679  0.09488461     0.17740
F3592       F  0.89973838  0.55471914  0.06629950    -0.20020
C3593       C  0.05680971  0.58608221  0.96634606    -0.21450
C3594       C  0.05674579  0.60034671  0.98297243    -0.09500
C3595       C  0.07234805  0.59887534  0.99843761     0.29360
C3596       C  0.08670297  0.58222443  0.99808240    -0.21450
C3597       C  0.08560079  0.56685787  0.98233402    -0.09510
C3598       C  0.07108163  0.56957802  0.96589512     0.29370
F3599       F  0.06984206  0.55570119  0.94990376    -0.20030
H3600       H  0.04490698  0.58704682  0.95423294     0.17730
H3601       H  0.09774683  0.58061948  0.01088828     0.17740
F3602       F  0.07244939  0.61227042  0.01486560    -0.20020
C3603       C  0.01854870  0.61188093  0.90820116    -0.21450
C3604       C  0.99724679  0.61624766  0.91210438    -0.09500
C3605       C  0.98189097  0.60736388  0.89914016     0.29360
C3606       C  0.98767789  0.59233745  0.88430752    -0.21450
C3607       C  0.00878200  0.58612708  0.88222310    -0.09510
C3608       C  0.02432304  0.59690981  0.89336702     0.29370
F3609       F  0.04470256  0.59078459  0.89220052    -0.20030
H3610       H  0.03057663  0.61829898  0.91833961     0.17730
H3611       H  0.97543319  0.58377024  0.87623673     0.17740
F3612       F  0.96120584  0.61082117  0.90291361    -0.20020
C3613       C  0.92093992  0.61936160  0.00207918    -0.21450
C3614       C  0.92409229  0.62338573  0.98071927    -0.09500
C3615       C  0.91023341  0.61476715  0.96600253     0.29360
C3616       C  0.89495012  0.60041522  0.97246717    -0.21450
C3617       C  0.89379916  0.59423122  0.99353474    -0.09510
C3618       C  0.90604266  0.60465967  0.00847833     0.29370
F3619       F  0.90558160  0.59856708  0.02883344    -0.20030
H3620       H  0.93184647  0.62550070  0.01356218     0.17730
H3621       H  0.88597718  0.59212711  0.96069371     0.17740
F3622       F  0.91331629  0.61804786  0.94524254    -0.20020
C3623       C  0.97882421  0.57210200  0.06201743    -0.21450
C3624       C  0.99660498  0.57095240  0.07495046    -0.09500
C3625       C  0.01143501  0.58716901  0.07428937     0.29360
C3626       C  0.00953945  0.60306737  0.05920457    -0.21450
C3627       C  0.99276203  0.60300569  0.04475762    -0.09510
C3628       C  0.97674183  0.58799279  0.04722061     0.29370
F3629       F  0.95973901  0.58768119  0.03436565    -0.20030
H3630       H  0.96698913  0.55993495  0.06261218     0.17730
H3631       H  0.02205211  0.61444428  0.05781244     0.17740
F3632       F  0.02869415  0.58656230  0.08675816    -0.20020
C3633       C  0.92162932  0.31443696  0.01907402    -0.21450
C3634       C  0.92983290  0.29413099  0.02006087    -0.09500
C3635       C  0.95158931  0.29130610  0.02202532     0.29360
C3636       C  0.96505047  0.30858122  0.02068688    -0.21450
C3637       C  0.95687439  0.32870690  0.01706021    -0.09510
C3638       C  0.93498759  0.33164059  0.01759945     0.29370
F3639       F  0.92648322  0.35090023  0.01479840    -0.20030
H3640       H  0.90485260  0.31681317  0.01737648     0.17730
H3641       H  0.98184508  0.30590870  0.02025599     0.17740
F3642       F  0.95987678  0.27177462  0.02253751    -0.20020
C3643       C  0.08430231  0.26931106  0.85169252    -0.21450
C3644       C  0.07897497  0.24814322  0.85413513    -0.09500
C3645       C  0.09105402  0.23297417  0.84385425     0.29360
C3646       C  0.10632304  0.23905437  0.82930302    -0.21450
C3647       C  0.10968460  0.26029506  0.82481884    -0.09510
C3648       C  0.09957794  0.27539834  0.83711930     0.29370
F3649       F  0.10203722  0.29601534  0.83274062    -0.20030
H3650       H  0.07479318  0.28124749  0.85905500     0.17730
H3651       H  0.11356798  0.22719215  0.81963270     0.17740
F3652       F  0.08589896  0.21245250  0.84547324    -0.20020
C3653       C  0.94778230  0.22009678  0.81469287    -0.21450
C3654       C  0.94509395  0.23429960  0.83115966    -0.09500
C3655       C  0.92578694  0.24457110  0.83347965     0.29360
C3656       C  0.91069278  0.24305629  0.81771154    -0.21450
C3657       C  0.91471659  0.23124540  0.79959473    -0.09510
C3658       C  0.93264469  0.21837097  0.79905990     0.29370
F3659       F  0.93664161  0.20567961  0.78254290    -0.20030
H3660       H  0.96234600  0.21147642  0.81309856     0.17730
H3661       H  0.89671712  0.25262806  0.81886915     0.17740
F3662       F  0.92247697  0.25792993  0.84960480    -0.20020
C3663       C  0.01767183  0.31830003  0.82641779    -0.21450
C3664       C  0.99888921  0.30901594  0.83315943    -0.09500
C3665       C  0.97958879  0.31760749  0.82664625     0.29360
C3666       C  0.97925216  0.33421755  0.81234419    -0.21450
C3667       C  0.99808520  0.34250328  0.80456020    -0.09510
C3668       C  0.01728694  0.33495000  0.81225810     0.29370
F3669       F  0.03567897  0.34262766  0.80483269    -0.20030
H3670       H  0.03267714  0.31192253  0.83126824     0.17730
H3671       H  0.96433319  0.33945662  0.80605462     0.17740
F3672       F  0.96115293  0.30855968  0.83230992    -0.20020
C3673       C  0.98721386  0.15552675  0.82611070    -0.21450
C3674       C  0.00331585  0.14807452  0.81319582    -0.09500
C3675       C  0.02430066  0.15262224  0.81850633     0.29360
C3676       C  0.02888787  0.16646289  0.83486708    -0.21450
C3677       C  0.01262262  0.17593095  0.84617334    -0.09510
C3678       C  0.99180130  0.16939766  0.84246924     0.29370
F3679       F  0.97566619  0.17877307  0.85265941    -0.20030
H3680       H  0.97095062  0.15264115  0.82202155     0.17730
H3681       H  0.04494086  0.17166869  0.83700763     0.17740
F3682       F  0.04021042  0.14566108  0.80624077    -0.20020
C3683       C  0.97273835  0.22018409  0.95058086    -0.21450
C3684       C  0.96714671  0.21680127  0.92958913    -0.09500
C3685       C  0.94603841  0.21288303  0.92460567     0.29360
C3686       C  0.93051018  0.21525716  0.93979902    -0.21450
C3687       C  0.93580989  0.22150789  0.96018157    -0.09510
C3688       C  0.95713453  0.22252735  0.96589514     0.29370
F3689       F  0.96278955  0.22861987  0.98543412    -0.20030
H3690       H  0.98890469  0.22360907  0.95463168     0.17730
H3691       H  0.91417567  0.21416740  0.93513309     0.17740
F3692       F  0.94022289  0.20952312  0.90444310    -0.20020
C3693       C  0.03426569  0.30377634  0.92681438    -0.21450
C3694       C  0.02184307  0.28594657  0.93017672    -0.09500
C3695       C  0.00935803  0.28470270  0.94822370     0.29360
C3696       C  0.00814775  0.30163893  0.96187888    -0.21450
C3697       C  0.01946897  0.32000086  0.95785649    -0.09510
C3698       C  0.03325290  0.32070864  0.94072446     0.29370
F3699       F  0.04413247  0.33841962  0.93638439    -0.20030
H3700       H  0.04350441  0.30519033  0.91266406     0.17730
H3701       H  0.99715316  0.30101020  0.97480465     0.17740
F3702       F  0.99652250  0.26803879  0.95136177    -0.20020
C3703       C  0.34486546  0.67752317  0.98858558    -0.21450
C3704       C  0.34529573  0.69697855  0.97816182    -0.09500
C3705       C  0.33045241  0.70043469  0.96233831     0.29360
C3706       C  0.31523925  0.68585560  0.95738489    -0.21450
C3707       C  0.31301984  0.66761368  0.96915450    -0.09510
C3708       C  0.32868753  0.66283256  0.98413641     0.29370
F3709       F  0.32726683  0.64510411  0.99569938    -0.20030
H3710       H  0.35571286  0.67449683  0.00128826     0.17730
H3711       H  0.30350848  0.69010193  0.94580108     0.17740
F3712       F  0.32855824  0.71939406  0.95367358    -0.20020
C3713       C  0.33854205  0.84610222  0.97727261    -0.21450
C3714       C  0.33684307  0.82718986  0.98811627    -0.09500
C3715       C  0.32033231  0.82436148  0.00247639     0.29360
C3716       C  0.30426988  0.83902215  0.00384190    -0.21450
C3717       C  0.30432258  0.85664781  0.99078989    -0.09510
C3718       C  0.32238727  0.86086909  0.97860950     0.29370
F3719       F  0.32369974  0.87835640  0.96662869    -0.20030
H3720       H  0.35125883  0.84858413  0.96630140     0.17730
H3721       H  0.29093041  0.83558398  0.01377917     0.17740
F3722       F  0.31868480  0.80640626  0.01372322    -0.20020
C3723       C  0.42391375  0.82165427  0.01586684    -0.21450
C3724       C  0.43059222  0.80106146  0.01242878    -0.09500
C3725       C  0.45217197  0.79649470  0.01344304     0.29360
C3726       C  0.46686603  0.81274370  0.01585347    -0.21450
C3727       C  0.46012994  0.83365270  0.01695367    -0.09510
C3728       C  0.43847290  0.83781529  0.01806749     0.29370
F3729       F  0.43138709  0.85778976  0.01922454    -0.20030
H3730       H  0.40736479  0.82551820  0.01486093     0.17730
H3731       H  0.48345551  0.80921016  0.01460033     0.17740
F3732       F  0.45910354  0.77683399  0.00956873    -0.20020
C3733       C  0.97298698  0.68337999  0.30779042    -0.21450
C3734       C  0.98836133  0.67338066  0.29581426    -0.09500
C3735       C  0.00969951  0.67634533  0.30074916     0.29360
C3736       C  0.01556592  0.69072339  0.31613454    -0.21450
C3737       C  0.00021109  0.70249820  0.32642306    -0.09510
C3738       C  0.97885535  0.69793095  0.32300049     0.29370
F3739       F  0.96372463  0.70947049  0.33246744    -0.20030
H3740       H  0.95653091  0.68170401  0.30378319     0.17730
H3741       H  0.03204484  0.69448646  0.31811242     0.17740
F3742       F  0.02485410  0.66741917  0.28880398    -0.20020
C3743       C  0.99068466  0.86453151  0.29513724    -0.21450
C3744       C  0.00654966  0.86494764  0.27990811    -0.09500
C3745       C  0.02396439  0.85168088  0.28217937     0.29360
C3746       C  0.02454543  0.83692579  0.29827357    -0.21450
C3747       C  0.00765567  0.83488431  0.31230211    -0.09510
C3748       C  0.99112874  0.84955415  0.31122291     0.29370
F3749       F  0.97449244  0.84827354  0.32442078    -0.20030
H3750       H  0.97713590  0.87466589  0.29362524     0.17730
H3751       H  0.03767902  0.82617891  0.29892002     0.17740
F3752       F  0.03993517  0.85225792  0.26812503    -0.20020
C3753       C  0.04692110  0.84096602  0.41967447    -0.21450
C3754       C  0.04379815  0.83466708  0.44045698    -0.09500
C3755       C  0.04045589  0.81351152  0.44508048     0.29360
C3756       C  0.03693681  0.79945199  0.42880066    -0.21450
C3757       C  0.03652182  0.80663766  0.40803552    -0.09510
C3758       C  0.04311382  0.82703889  0.40343386     0.29370
F3759       F  0.04367797  0.83405405  0.38337699    -0.20030
H3760       H  0.04942774  0.85731312  0.41597585     0.17730
H3761       H  0.03199359  0.78368385  0.43255261     0.17740
F3762       F  0.03701334  0.80724797  0.46509795    -0.20020
C3763       C  0.16797095  0.72111414  0.25592887    -0.21450
C3764       C  0.17510109  0.74184293  0.25495549    -0.09500
C3765       C  0.19643418  0.74610113  0.25887835     0.29360
C3766       C  0.21072174  0.72957497  0.26114273    -0.21450
C3767       C  0.20378157  0.70882607  0.25958946    -0.09510
C3768       C  0.18217408  0.70471396  0.25821983     0.29370
F3769       F  0.17509756  0.68476141  0.25665137    -0.20030
H3770       H  0.15155799  0.71751585  0.25321615     0.17730
H3771       H  0.22738259  0.73298012  0.26173375     0.17740
F3772       F  0.20384684  0.76596117  0.25790965    -0.20020
C3773       C  0.10451503  0.86385296  0.20940690    -0.21450
C3774       C  0.10689626  0.85951239  0.23087773    -0.09500
C3775       C  0.09682019  0.87237978  0.24544365     0.29360
C3776       C  0.08199108  0.88700583  0.23857108    -0.21450
C3777       C  0.07692825  0.88867876  0.21718802    -0.09510
C3778       C  0.08953425  0.87835279  0.20252793     0.29370
F3779       F  0.08482071  0.87940317  0.18183031    -0.20030
H3780       H  0.11193126  0.85382708  0.19794402     0.17730
H3781       H  0.07223827  0.89468582  0.25011770     0.17740
F3782       F  0.09854933  0.86833403  0.26623267    -0.20020
C3783       C  0.07772350  0.79204897  0.32894807    -0.21450
C3784       C  0.07438361  0.77038984  0.33022780    -0.09500
C3785       C  0.08767143  0.75686945  0.31923389     0.29360
C3786       C  0.10265669  0.76504278  0.30546748    -0.21450
C3787       C  0.10397975  0.78669990  0.30205870    -0.09510
C3788       C  0.09226136  0.80021857  0.31472838     0.29370
F3789       F  0.09278464  0.82115106  0.31129154    -0.20030
H3790       H  0.06723331  0.80268664  0.33696845     0.17730
H3791       H  0.11115734  0.75439730  0.29539482     0.17740
F3792       F  0.08435810  0.73593074  0.31979472    -0.20020
C3793       C  0.04644691  0.70981605  0.24393085    -0.21450
C3794       C  0.04872934  0.69404623  0.22885438    -0.09500
C3795       C  0.06679364  0.69385183  0.21628890     0.29360
C3796       C  0.08127923  0.71032059  0.21757505    -0.21450
C3797       C  0.07794839  0.72714561  0.23141077    -0.09510
C3798       C  0.06080618  0.72616549  0.24527365     0.29370
F3799       F  0.05714842  0.74153493  0.25941421    -0.20030
H3800       H  0.03281867  0.71006374  0.25407615     0.17730
H3801       H  0.09442561  0.71049061  0.20684336     0.17740
F3802       F  0.06954242  0.67881737  0.20160974    -0.20020
C3803       C  0.05101344  0.80837583  0.15270404    -0.21450
C3804       C  0.05175200  0.79322367  0.13685956    -0.09500
C3805       C  0.06961571  0.78027241  0.13537612     0.29360
C3806       C  0.08480796  0.78055549  0.15116917    -0.21450
C3807       C  0.08237109  0.79370191  0.16850860    -0.09510
C3808       C  0.06614429  0.80862275  0.16843828     0.29370
F3809       F  0.06402326  0.82246269  0.18437511    -0.20030
H3810       H  0.03787907  0.81907464  0.15385370     0.17730
H3811       H  0.09742004  0.76920756  0.15072866     0.17740
F3812       F  0.07155862  0.76605525  0.11977666    -0.20020
C3813       C  0.96640641  0.71989371  0.04956688    -0.21450
C3814       C  0.96999634  0.73978647  0.04099416    -0.09500
C3815       C  0.97395870  0.74161600  0.01945280     0.29360
C3816       C  0.97556310  0.72368422  0.00700248    -0.21450
C3817       C  0.97387609  0.70368771  0.01600381    -0.09510
C3818       C  0.96841736  0.70195247  0.03723705     0.29370
F3819       F  0.96627965  0.68288682  0.04632549    -0.20030
H3820       H  0.96390532  0.71814906  0.06624739     0.17730
H3821       H  0.98001529  0.72538388  0.99072979     0.17740
F3822       F  0.97848132  0.76052793  0.01093810    -0.20020
C3823       C  0.97374842  0.86394561  0.12989740    -0.21450
C3824       C  0.98754663  0.85182789  0.11781232    -0.09500
C3825       C  0.00924656  0.85584003  0.11923657     0.29360
C3826       C  0.01701089  0.87018263  0.13395791    -0.21450
C3827       C  0.00326743  0.88126947  0.14704293    -0.09510
C3828       C  0.98148694  0.87876638  0.14415146     0.29370
F3829       F  0.96777251  0.88869135  0.15698566    -0.20030
H3830       H  0.95705152  0.86069169  0.12957205     0.17730
H3831       H  0.03382237  0.87138508  0.13630814     0.17740
F3832       F  0.02307439  0.84393912  0.10835669    -0.20020
C3833       C  0.97435058  0.71844085  0.14400003    -0.21450
C3834       C  0.99300719  0.72055708  0.13258864    -0.09500
C3835       C  0.00852794  0.70509050  0.13418800     0.29360
C3836       C  0.00629379  0.68894921  0.14888939    -0.21450
C3837       C  0.98854251  0.68813734  0.16202446    -0.09510
C3838       C  0.97196549  0.70228130  0.15843357     0.29370
F3839       F  0.95410037  0.70153002  0.16999678    -0.20030
H3840       H  0.96206305  0.73009037  0.14260456     0.17730
H3841       H  0.01926916  0.67825654  0.15124979     0.17740
F3842       F  0.02667852  0.70679978  0.12320228    -0.20020
C3843       C  0.05038935  0.81249881  0.04063012    -0.21450
C3844       C  0.02933135  0.80738831  0.03652850    -0.09500
C3845       C  0.02324147  0.80371271  0.01563999     0.29360
C3846       C  0.03853804  0.80223016  0.99981930    -0.21450
C3847       C  0.05996697  0.80452979  0.00468041    -0.09510
C3848       C  0.06554860  0.81115407  0.02491855     0.29370
F3849       F  0.08601966  0.81426133  0.03003993    -0.20030
H3850       H  0.05546010  0.81568217  0.05649705     0.17730
H3851       H  0.03383547  0.79711077  0.98436516     0.17740
F3852       F  0.00300406  0.79896014  0.01097715    -0.20020
C3853       C  0.04007707  0.73448008  0.94465042    -0.21450
C3854       C  0.06186390  0.73162473  0.94599381    -0.09500
C3855       C  0.06999685  0.71130655  0.94812532     0.29360
C3856       C  0.05652306  0.69443996  0.95140657    -0.21450
C3857       C  0.03478769  0.69756707  0.95206261    -0.09510
C3858       C  0.02652458  0.71745431  0.94748710     0.29370
F3859       F  0.00549815  0.72087432  0.94835294    -0.20030
H3860       H  0.03357545  0.75008771  0.94359507     0.17730
H3861       H  0.06309134  0.67920816  0.95490385     0.17740
F3862       F  0.09105066  0.70820498  0.94957059    -0.20020
C3863       C  0.14149682  0.85001719  0.97975414    -0.21450
C3864       C  0.14174193  0.84207343  0.95922913    -0.09500
C3865       C  0.15587042  0.85064134  0.94473443     0.29360
C3866       C  0.17092713  0.86514881  0.95121423    -0.21450
C3867       C  0.17243419  0.87116051  0.97232376    -0.09510
C3868       C  0.15681117  0.86446053  0.98633870     0.29370
F3869       F  0.15804586  0.86957718  0.00689476    -0.20030
H3870       H  0.13105733  0.84324202  0.99129712     0.17730
H3871       H  0.18291148  0.86996114  0.94017630     0.17740
F3872       F  0.15669766  0.84313587  0.92489969    -0.20020
C3873       C  0.16058773  0.70305764  0.95518228    -0.21450
C3874       C  0.14848491  0.70795140  0.97279892    -0.09500
C3875       C  0.14858487  0.69434187  0.99010863     0.29360
C3876       C  0.16275667  0.67755736  0.99071260    -0.21450
C3877       C  0.17664748  0.67428256  0.97399722    -0.09510
C3878       C  0.17448743  0.68627702  0.95569512     0.29370
F3879       F  0.18752771  0.68317993  0.93918976    -0.20030
H3880       H  0.16046080  0.71322984  0.94159821     0.17730
H3881       H  0.16443113  0.66861937  0.00503218     0.17740
F3882       F  0.13696215  0.69873600  0.00733057    -0.20020
C3883       C  0.18804163  0.81059529  0.15276435    -0.21450
C3884       C  0.20931100  0.80743357  0.15767185    -0.09500
C3885       C  0.21584281  0.80896708  0.17868169     0.29360
C3886       C  0.20081510  0.81020381  0.19462147    -0.21450
C3887       C  0.17937446  0.81010423  0.18959646    -0.09510
C3888       C  0.17313667  0.81184340  0.16860807     0.29370
F3889       F  0.15244018  0.81226424  0.16343089    -0.20030
H3890       H  0.18269617  0.80997116  0.13667245     0.17730
H3891       H  0.20581901  0.80883255  0.21077464     0.17740
F3892       F  0.23634551  0.80654161  0.18397787    -0.20020
C3893       C  0.27709400  0.72131794  0.16185664    -0.21450
C3894       C  0.26723387  0.74063861  0.16492667    -0.09500
C3895       C  0.25900333  0.74546536  0.18472570     0.29360
C3896       C  0.25952114  0.73065504  0.20085935    -0.21450
C3897       C  0.26767887  0.71064136  0.19724460    -0.09510
C3898       C  0.27717606  0.70630788  0.17785989     0.29370
F3899       F  0.28485432  0.68694717  0.17385102    -0.20030
H3900       H  0.28314159  0.71722707  0.14657095     0.17730
H3901       H  0.25153876  0.73406171  0.21542543     0.17740
F3902       F  0.24871948  0.76376213  0.18783925    -0.20020
C3903       C  0.17156535  0.76976540  0.06119452    -0.21450
C3904       C  0.18851312  0.78375365  0.05968472    -0.09500
C3905       C  0.18865458  0.79851616  0.04329542     0.29360
C3906       C  0.17363780  0.79744799  0.02743609    -0.21450
C3907       C  0.15813779  0.78183802  0.02769232    -0.09510
C3908       C  0.15645638  0.76878093  0.04538281     0.29370
F3909       F  0.14136980  0.75383924  0.04664343    -0.20030
H3910       H  0.17080550  0.75846922  0.07381501     0.17730
H3911       H  0.17487680  0.80815183  0.01433653     0.17740
F3912       F  0.20401861  0.81315608  0.04180021    -0.20020
C3913       C  0.23185098  0.84929523  0.07783232    -0.21450
C3914       C  0.25334126  0.84431729  0.07837236    -0.09500
C3915       C  0.26739017  0.85597535  0.06613562     0.29360
C3916       C  0.25981408  0.87132259  0.05242806    -0.21450
C3917       C  0.23811062  0.87464158  0.05015439    -0.09510
C3918       C  0.22420006  0.86410683  0.06354807     0.29370
F3919       F  0.20313720  0.86637803  0.06112095    -0.20030
H3920       H  0.22074200  0.84006531  0.08676521     0.17730
H3921       H  0.27072117  0.87878216  0.04175911     0.17740
F3922       F  0.28813852  0.85110340  0.06593958    -0.20020
C3923       C  0.32455107  0.75030558  0.07599810    -0.21450
C3924       C  0.31958067  0.77105855  0.08129487    -0.09500
C3925       C  0.33199615  0.78730684  0.07327455     0.29360
C3926       C  0.34704619  0.78301777  0.05791625    -0.21450
C3927       C  0.35006171  0.76250221  0.05065432    -0.09510
C3928       C  0.33977323  0.74600039  0.06082440     0.29370
F3929       F  0.34195414  0.72612033  0.05379757    -0.20030
H3930       H  0.31493463  0.73759159  0.08181266     0.17730
H3931       H  0.35460734  0.79596943  0.04998563     0.17740
F3932       F  0.32730392  0.80750357  0.07771005    -0.20020
C3933       C  0.22439041  0.69984356  0.06632953    -0.21450
C3934       C  0.24244509  0.71214009  0.06886108    -0.09500
C3935       C  0.26057962  0.70741689  0.05736215     0.29360
C3936       C  0.26009792  0.69187075  0.04217984    -0.21450
C3937       C  0.24149399  0.68084345  0.03812400    -0.09510
C3938       C  0.22385460  0.68421218  0.05100212     0.29370
F3939       F  0.20550220  0.67403991  0.04734854    -0.20030
H3940       H  0.21018526  0.70356474  0.07485951     0.17730
H3941       H  0.27392990  0.68937548  0.03264831     0.17740
F3942       F  0.27829074  0.71900405  0.05970198    -0.20020
C3943       C  0.26315296  0.69095262  0.88155701    -0.21450
C3944       C  0.24321927  0.69655806  0.87377559    -0.09500
C3945       C  0.22570242  0.68485667  0.88025254     0.29360
C3946       C  0.22784856  0.66965555  0.89604904    -0.21450
C3947       C  0.24753286  0.66550969  0.90527558    -0.09510
C3948       C  0.26535318  0.67549601  0.89703038     0.29370
F3949       F  0.28446255  0.67252104  0.90600771    -0.20030
H3950       H  0.27683092  0.70000262  0.87712073     0.17730
H3951       H  0.21382459  0.66253012  0.90247269     0.17740
F3952       F  0.20617784  0.69007060  0.87346975    -0.20020
C3953       C  0.24685784  0.84559453  0.88624295    -0.21450
C3954       C  0.23388811  0.82804525  0.88958547    -0.09500
C3955       C  0.22156566  0.82712140  0.90782689     0.29360
C3956       C  0.22476573  0.84162396  0.92364998    -0.21450
C3957       C  0.23987217  0.85741700  0.92139658    -0.09510
C3958       C  0.24981102  0.86030558  0.90208283     0.29370
F3959       F  0.26395240  0.87592923  0.89930305    -0.20030
H3960       H  0.25613054  0.84700708  0.87211753     0.17730
H3961       H  0.21636648  0.83971129  0.93827153     0.17740
F3962       F  0.20795074  0.81116545  0.91135586    -0.20020
C3963       C  0.31937437  0.78576456  0.88905495    -0.21450
C3964       C  0.30370410  0.77039267  0.88800772    -0.09500
C3965       C  0.30539392  0.75247608  0.90043290     0.29360
C3966       C  0.32142011  0.75083141  0.91498085    -0.21450
C3967       C  0.33564792  0.76722544  0.91826842    -0.09510
C3968       C  0.33531594  0.78427806  0.90420240     0.29370
F3969       F  0.34926635  0.80018975  0.90605540    -0.20030
H3970       H  0.31836376  0.79960323  0.87929563     0.17730
H3971       H  0.32170192  0.73693121  0.92457726     0.17740
F3972       F  0.29077021  0.73705061  0.89933208    -0.20020
C3973       C  0.16343876  0.77983190  0.86741502    -0.21450
C3974       C  0.17087685  0.75925706  0.86500954    -0.09500
C3975       C  0.16066289  0.74313319  0.87591812     0.29360
C3976       C  0.14525909  0.74779447  0.89082157    -0.21450
C3977       C  0.13982029  0.76862140  0.89529245    -0.09510
C3978       C  0.14798221  0.78453600  0.88244343     0.29370
F3979       F  0.14341741  0.80483643  0.88649057    -0.20030
H3980       H  0.17142776  0.79258418  0.85958970     0.17730
H3981       H  0.13936207  0.73526689  0.90062386     0.17740
F3982       F  0.16762941  0.72316134  0.87426697    -0.20020
C3983       C  0.21844912  0.82654449  0.79140521    -0.21450
C3984       C  0.22311020  0.80541012  0.78767811    -0.09500
C3985       C  0.22856734  0.79925294  0.76725816     0.29360
C3986       C  0.23174566  0.81440547  0.75164420    -0.21450
C3987       C  0.22967476  0.83576358  0.75631150    -0.09510
C3988       C  0.22182116  0.84160667  0.77596832     0.29370
F3989       F  0.21889742  0.86205775  0.78076193    -0.20030
H3990       H  0.21402825  0.83166816  0.80693486     0.17730
H3991       H  0.23773787  0.80957351  0.73655671     0.17740
F3992       F  0.23336058  0.77903273  0.76306500    -0.20020
C3993       C  0.89257771  0.78766327  0.14397237    -0.21450
C3994       C  0.89029393  0.76672161  0.15039796    -0.09500
C3995       C  0.90126064  0.75120186  0.13943943     0.29360
C3996       C  0.91582985  0.75672214  0.12395846    -0.21450
C3997       C  0.91998610  0.77782502  0.11926160    -0.09510
C3998       C  0.90730483  0.79322665  0.12850769     0.29370
F3999       F  0.91128015  0.81375521  0.12491074    -0.20030
H4000       H  0.88478170  0.79995155  0.15262734     0.17730
H4001       H  0.92568079  0.74459511  0.11738773     0.17740
F4002       F  0.89991498  0.73093295  0.14558982    -0.20020
C4003       C  0.89454983  0.68545554  0.20556604    -0.21450
C4004       C  0.88760640  0.69818592  0.22195705    -0.09500
C4005       C  0.89210402  0.69239732  0.24270807     0.29360
C4006       C  0.90595492  0.67595756  0.24678551    -0.21450
C4007       C  0.91568847  0.66546420  0.23020643    -0.09510
C4008       C  0.90859310  0.66910449  0.20965939     0.29370
F4009       F  0.91801197  0.65936018  0.19332772    -0.20030
H4010       H  0.89146117  0.68988710  0.18948160     0.17730
H4011       H  0.91151282  0.67365567  0.26266046     0.17740
F4012       F  0.88563876  0.70459363  0.25881959    -0.20020
C4013       C  0.92822226  0.83095088  0.19775684    -0.21450
C4014       C  0.91318750  0.83146612  0.21379012    -0.09500
C4015       C  0.91248377  0.84884727  0.22720313     0.29360
C4016       C  0.92824383  0.86396257  0.22621296    -0.21450
C4017       C  0.94483455  0.86198872  0.21186023    -0.09510
C4018       C  0.94387998  0.84610871  0.19667167     0.29370
F4019       F  0.95882867  0.84430841  0.18165088    -0.20030
H4020       H  0.92866204  0.81805136  0.18681740     0.17730
H4021       H  0.92830397  0.87627361  0.23780955     0.17740
F4022       F  0.89790428  0.85022138  0.24261993    -0.20020
C4023       C  0.91113869  0.78968469  0.29896193    -0.21450
C4024       C  0.91080352  0.77270349  0.28501092    -0.09500
C4025       C  0.92389591  0.75545940  0.28884416     0.29360
C4026       C  0.93864869  0.75622850  0.30489856    -0.21450
C4027       C  0.94059460  0.77413145  0.31735090    -0.09510
C4028       C  0.92609056  0.79047988  0.31505723     0.29370
F4029       F  0.92791828  0.80809859  0.32669636    -0.20030
H4030       H  0.90113875  0.80312026  0.29627515     0.17730
H4031       H  0.94975170  0.74348948  0.30653340     0.17740
F4032       F  0.92342184  0.73845899  0.27618354    -0.20020
C4033       C  0.97262771  0.79922130  0.51609511    -0.21450
C4034       C  0.95157778  0.80497399  0.51931633    -0.09500
C4035       C  0.94663512  0.82630934  0.52140366     0.29360
C4036       C  0.96173941  0.84154262  0.51717810    -0.21450
C4037       C  0.98210839  0.83578291  0.51130973    -0.09510
C4038       C  0.98790306  0.81458548  0.51214551     0.29370
F4039       F  0.00753711  0.80861670  0.50646113    -0.20030
H4040       H  0.97673145  0.78292679  0.51408153     0.17730
H4041       H  0.95704230  0.85780999  0.51669903     0.17740
F4042       F  0.92648570  0.83239209  0.52475266    -0.20020
C4043       C  0.93359539  0.74694825  0.42864667    -0.21450
C4044       C  0.94251247  0.74534621  0.44875319    -0.09500
C4045       C  0.96438643  0.74275594  0.45053455     0.29360
C4046       C  0.97712160  0.74368847  0.43255685    -0.21450
C4047       C  0.96817259  0.74739577  0.41274141    -0.09510
C4048       C  0.94624962  0.74817686  0.41085749     0.29370
F4049       F  0.93715387  0.75174182  0.39195415    -0.20030
H4050       H  0.91679508  0.74906899  0.42686716     0.17730
H4051       H  0.99404389  0.74340635  0.43433571     0.17740
F4052       F  0.97359592  0.74178788  0.46967296    -0.20020
C4053       C  0.53922558  0.83414959  0.92333957    -0.21450
C4054       C  0.53788165  0.81260131  0.92713078    -0.09500
C4055       C  0.53754211  0.80524068  0.94790826     0.29360
C4056       C  0.53536219  0.81940871  0.96439129    -0.21450
C4057       C  0.53363449  0.84081020  0.96013140    -0.09510
C4058       C  0.53710058  0.84821764  0.93975443     0.29370
F4059       F  0.53587544  0.86897223  0.93544263    -0.20030
H4060       H  0.53978528  0.84009450  0.90745936     0.17730
H4061       H  0.53254808  0.81354141  0.98005386     0.17740
F4062       F  0.53624479  0.78447668  0.95207426    -0.20020
C4063       C  0.45161265  0.74702330  0.90842569    -0.21450
C4064       C  0.47153406  0.74681375  0.91790173    -0.09500
C4065       C  0.47299958  0.74311132  0.93951809     0.29360
C4066       C  0.45463342  0.74175402  0.95166325    -0.21450
C4067       C  0.43469896  0.74433684  0.94237581    -0.09510
C4068       C  0.43337225  0.74583007  0.92046205     0.29370
F4069       F  0.41446437  0.74788943  0.91081507    -0.20030
H4070       H  0.45016529  0.74989941  0.89176288     0.17730
H4071       H  0.45609311  0.74078863  0.96852410     0.17740
F4072       F  0.49200081  0.74324983  0.94916281    -0.20020
C4073       C  0.54220449  0.83756746  0.81523388    -0.21450
C4074       C  0.52476654  0.83554135  0.82850190    -0.09500
C4075       C  0.50941588  0.85146171  0.82860796     0.29360
C4076       C  0.51021848  0.86749630  0.81375479    -0.21450
C4077       C  0.52622233  0.86775484  0.79875506    -0.09510
C4078       C  0.54295201  0.85354827  0.80044856     0.29370
F4079       F  0.55911867  0.85407563  0.78661449    -0.20030
H4080       H  0.55455474  0.82592365  0.81526414     0.17730
H4081       H  0.49723578  0.87839244  0.81266245     0.17740
F4082       F  0.49250523  0.85042751  0.84148221    -0.20020
C4083       C  0.42837917  0.84936443  0.72909025    -0.21450
C4084       C  0.43050509  0.83231196  0.74286442    -0.09500
C4085       C  0.44851475  0.83090972  0.75558344     0.29360
C4086       C  0.46460217  0.84544058  0.75365864    -0.21450
C4087       C  0.46312960  0.86173422  0.73915098    -0.09510
C4088       C  0.44468979  0.86413284  0.72725046     0.29370
F4089       F  0.44286085  0.88012270  0.71339367    -0.20030
H4090       H  0.41475815  0.85055589  0.71898786     0.17730
H4091       H  0.47858341  0.84366866  0.76321263     0.17740
F4092       F  0.45096817  0.81483905  0.76929982    -0.20020
C4093       C  0.44310136  0.75116711  0.79543016    -0.21450
C4094       C  0.42633442  0.76541186  0.79515619    -0.09500
C4095       C  0.42447888  0.77986733  0.81173417     0.29360
C4096       C  0.44046477  0.78156258  0.82667893    -0.21450
C4097       C  0.45841097  0.76898226  0.82523817    -0.09510
C4098       C  0.45905290  0.75298085  0.81020941     0.29370
F4099       F  0.47571021  0.73978058  0.80905872    -0.20030
H4100       H  0.44476425  0.73953706  0.78326424     0.17730
H4101       H  0.43952594  0.79373497  0.83838752     0.17740
F4102       F  0.40818286  0.79350931  0.81263055    -0.20020
C4103       C  0.32873139  0.75082003  0.79430070    -0.21450
C4104       C  0.32715416  0.74850511  0.77251802    -0.09500
C4105       C  0.30753438  0.74290323  0.76384677     0.29360
C4106       C  0.28955819  0.74180844  0.77659509    -0.21450
C4107       C  0.29100743  0.74602937  0.79808344    -0.09510
C4108       C  0.31090894  0.74959192  0.80694549     0.29370
F4109       F  0.31279842  0.75387171  0.82766420    -0.20030
H4110       H  0.34360075  0.75498869  0.80142593     0.17730
H4111       H  0.27431335  0.73954052  0.76940373     0.17740
F4112       F  0.30526137  0.74073285  0.74284894    -0.20020
C4113       C  0.31312923  0.80276208  0.69777345    -0.21450
C4114       C  0.33327723  0.80951130  0.70356276    -0.09500
C4115       C  0.33798202  0.83094518  0.70348391     0.29360
C4116       C  0.32200330  0.84546257  0.70064368    -0.21450
C4117       C  0.30129551  0.83873319  0.69771492    -0.09510
C4118       C  0.29705771  0.81740231  0.69487184     0.29370
F4119       F  0.27703356  0.81064805  0.69213743    -0.20030
H4120       H  0.30931638  0.78626776  0.69778718     0.17730
H4121       H  0.32542554  0.86191060  0.70278405     0.17740
F4122       F  0.35758259  0.83780705  0.70832613    -0.20020
C4123       C  0.61997370  0.76166048  0.82807365    -0.21450
C4124       C  0.62320537  0.78281720  0.82308802    -0.09500
C4125       C  0.61227367  0.79804991  0.83454394     0.29360
C4126       C  0.59688223  0.79211362  0.84910980    -0.21450
C4127       C  0.59183404  0.77093529  0.85216003    -0.09510
C4128       C  0.60427032  0.75572395  0.84230776     0.29370
F4129       F  0.59931054  0.73518811  0.84423951    -0.20030
H4130       H  0.62769791  0.74964730  0.81897522     0.17730
H4131       H  0.58707661  0.80411643  0.85596593     0.17740
F4132       F  0.61451677  0.81858278  0.82966787    -0.20020
C4133       C  0.62299913  0.85719598  0.72987464    -0.21450
C4134       C  0.62522262  0.85197950  0.75118128    -0.09500
C4135       C  0.61464602  0.86411316  0.76609106     0.29360
C4136       C  0.60014757  0.87934876  0.75960959    -0.21450
C4137       C  0.59600912  0.88270635  0.73821739    -0.09510
C4138       C  0.60849998  0.87241433  0.72339926     0.29370
F4139       F  0.60452080  0.87482515  0.70266313    -0.20030
H4140       H  0.63058657  0.84768988  0.71808656     0.17730
H4141       H  0.59031830  0.88671875  0.77128821     0.17740
F4142       F  0.61592123  0.85911575  0.78670564    -0.20020
C4143       C  0.57231274  0.47938997  0.68730509    -0.21450
C4144       C  0.56820533  0.48419717  0.70825411    -0.09500
C4145       C  0.54745640  0.48835157  0.71448521     0.29360
C4146       C  0.53152947  0.49019074  0.69942723    -0.21450
C4147       C  0.53630227  0.48808580  0.67809185    -0.09510
C4148       C  0.55645917  0.48114650  0.67229991     0.29370
F4149       F  0.56139538  0.47826135  0.65184883    -0.20030
H4150       H  0.58826086  0.47634863  0.68225164     0.17730
H4151       H  0.51616622  0.49563222  0.70423169     0.17740
F4152       F  0.54321177  0.49346031  0.73464444    -0.20020
C4153       C  0.45387069  0.70063630  0.74922440    -0.21450
C4154       C  0.44831388  0.67979257  0.75291590    -0.09500
C4155       C  0.42767340  0.67331044  0.74812548     0.29360
C4156       C  0.41296708  0.68784878  0.73999758    -0.21450
C4157       C  0.41906822  0.70864753  0.73594357    -0.09510
C4158       C  0.43983844  0.71466539  0.74067877     0.29370
F4159       F  0.44697468  0.73434681  0.73705880    -0.20030
H4160       H  0.46959531  0.70625267  0.75247624     0.17730
H4161       H  0.39714717  0.68278097  0.73640204     0.17740
F4162       F  0.42172268  0.65323148  0.75145371    -0.20020
C4163       C  0.49561824  0.67861971  0.83051924    -0.21450
C4164       C  0.51251296  0.66692581  0.82280068    -0.09500
C4165       C  0.53278163  0.67057766  0.83089824     0.29360
C4166       C  0.53649493  0.68776405  0.84389050    -0.21450
C4167       C  0.52004838  0.70142485  0.84871030    -0.09510
C4168       C  0.49938149  0.69606396  0.84308471     0.29370
F4169       F  0.48321407  0.70915624  0.84753768    -0.20030
H4170       H  0.47998012  0.67633714  0.82419859     0.17730
H4171       H  0.55251221  0.69178658  0.84797627     0.17740
F4172       F  0.54942691  0.65956473  0.82356515    -0.20020
C4173       C  0.57710175  0.69887951  0.76965424    -0.21450
C4174       C  0.57611943  0.68555268  0.75226804    -0.09500
C4175       C  0.59129068  0.68737255  0.73649947     0.29360
C4176       C  0.60575553  0.70386867  0.73707828    -0.21450
C4177       C  0.60512694  0.71870939  0.75333940    -0.09510
C4178       C  0.59146454  0.71528651  0.77029263     0.29370
F4179       F  0.59090289  0.72858529  0.78680990    -0.20030
H4180       H  0.56554626  0.69757616  0.78203402     0.17730
H4181       H  0.61626781  0.70596305  0.72393242     0.17740
F4182       F  0.59061432  0.67476904  0.71947093    -0.20020
C4183       C  0.48590196  0.59915383  0.68576035    -0.21450
C4184       C  0.48447721  0.59514312  0.70731943    -0.09500
C4185       C  0.47833285  0.57503245  0.71406077     0.29360
C4186       C  0.47605232  0.55880452  0.69951001    -0.21450
C4187       C  0.47969170  0.56253677  0.67820978    -0.09510
C4188       C  0.48360095  0.58301950  0.67133973     0.29370
F4189       F  0.48724357  0.58700383  0.65078095    -0.20030
H4190       H  0.49034304  0.61450048  0.68010697     0.17730
H4191       H  0.47342048  0.54301967  0.70506569     0.17740
F4192       F  0.47679616  0.57046452  0.73474944    -0.20020
C4193       C  0.53884306  0.56646791  0.77113229    -0.21450
C4194       C  0.54698771  0.58688876  0.77125478    -0.09500
C4195       C  0.56877147  0.58977945  0.77269645     0.29360
C4196       C  0.58224368  0.57263562  0.77184692    -0.21450
C4197       C  0.57427711  0.55232497  0.76922868    -0.09510
C4198       C  0.55242957  0.54918473  0.77009160     0.29370
F4199       F  0.54422253  0.52981716  0.76735627    -0.20030
H4200       H  0.52206759  0.56399527  0.76971566     0.17730
H4201       H  0.59903237  0.57540441  0.77131298     0.17740
F4202       F  0.57706125  0.60932681  0.77294503    -0.20020
C4203       C  0.57951058  0.71375734  0.46610642    -0.21450
C4204       C  0.57623189  0.73532390  0.46817028    -0.09500
C4205       C  0.55548460  0.74304173  0.46771746     0.29360
C4206       C  0.53840202  0.72912073  0.46761091    -0.21450
C4207       C  0.54187275  0.70746726  0.46775585    -0.09510
C4208       C  0.56253375  0.69995667  0.46581517     0.29370
F4209       F  0.56636982  0.67908443  0.46601172    -0.20030
H4210       H  0.59530673  0.70745732  0.46631282     0.17730
H4211       H  0.52265239  0.73519268  0.46962206     0.17740
F4212       F  0.55170559  0.76378235  0.46997644    -0.20020
C4213       C  0.41130419  0.79813098  0.66039283    -0.21450
C4214       C  0.40826704  0.77682050  0.66492052    -0.09500
C4215       C  0.41839183  0.76177279  0.65264267     0.29360
C4216       C  0.43397359  0.76802131  0.63857996    -0.21450
C4217       C  0.43937117  0.78922398  0.63664690    -0.09510
C4218       C  0.42691224  0.80436195  0.64636167     0.29370
F4219       F  0.43202222  0.82490315  0.64490812    -0.20030
H4220       H  0.40369799  0.80992227  0.66987726     0.17730
H4221       H  0.44369560  0.75617030  0.63134334     0.17740
F4222       F  0.41602080  0.74111899  0.65691191    -0.20020
C4223       C  0.53533491  0.86064461  0.63754504    -0.21450
C4224       C  0.51370597  0.85800456  0.63399858    -0.09500
C4225       C  0.49953364  0.87182633  0.64348577     0.29360
C4226       C  0.50672247  0.88621947  0.65832345    -0.21450
C4227       C  0.52800107  0.88661842  0.66414773    -0.09510
C4228       C  0.54247313  0.87469375  0.65273768     0.29370
F4229       F  0.56303610  0.87440587  0.65838519    -0.20030
H4230       H  0.54644941  0.84977050  0.63077496     0.17730
H4231       H  0.49528802  0.89495867  0.66729892     0.17740
F4232       F  0.47854092  0.86927777  0.64076780    -0.20020
C4233       C  0.51725524  0.70765596  0.66037529    -0.21450
C4234       C  0.50572673  0.72609000  0.66338939    -0.09500
C4235       C  0.49296551  0.72784656  0.68127255     0.29360
C4236       C  0.49311072  0.71225647  0.69656119    -0.21450
C4237       C  0.50608612  0.69460452  0.69454026    -0.09510
C4238       C  0.51753743  0.69204127  0.67579895     0.29370
F4239       F  0.52991478  0.67505706  0.67277012    -0.20030
H4240       H  0.52712614  0.70590196  0.64670091     0.17730
H4241       H  0.48380081  0.71461298  0.71052773     0.17740
F4242       F  0.48095920  0.74508486  0.68444453    -0.20020
C4243       C  0.58130149  0.76476237  0.66465171    -0.21450
C4244       C  0.57233409  0.78411593  0.65932888    -0.09500
C4245       C  0.58059324  0.80251702  0.66804773     0.29360
C4246       C  0.59661319  0.80131944  0.68300278    -0.21450
C4247       C  0.60453769  0.78182341  0.68920175    -0.09510
C4248       C  0.59713913  0.76357716  0.67966333     0.29370
F4249       F  0.60376381  0.74452618  0.68636231    -0.20030
H4250       H  0.57491598  0.75037259  0.65840323     0.17730
H4251       H  0.60204252  0.81546304  0.69056521     0.17740
F4252       F  0.57263290  0.82147412  0.66273136    -0.20020
C4253       C  0.47932715  0.74836322  0.54322940    -0.21450
C4254       C  0.48152317  0.74364257  0.56458260    -0.09500
C4255       C  0.47937799  0.72285809  0.57129791     0.29360
C4256       C  0.47763916  0.70682168  0.55669546    -0.21450
C4257       C  0.47818451  0.71122789  0.53517336    -0.09510
C4258       C  0.47767643  0.73220231  0.52850245     0.29370
F4259       F  0.47846243  0.73698710  0.50781960    -0.20030
H4260       H  0.48116208  0.76430308  0.53779820     0.17730
H4261       H  0.47793510  0.69078714  0.56217229     0.17740
F4262       F  0.48114355  0.71791405  0.59190445    -0.20020
C4263       C  0.54648741  0.80582036  0.54047683    -0.21450
C4264       C  0.55308838  0.80362393  0.56136548    -0.09500
C4265       C  0.57463667  0.80400444  0.56604283     0.29360
C4266       C  0.58928439  0.80377580  0.54990546    -0.21450
C4267       C  0.58262330  0.80310485  0.52900204    -0.09510
C4268       C  0.56123383  0.80542981  0.52426226     0.29370
F4269       F  0.55446520  0.80447083  0.50413897    -0.20030
H4270       H  0.52991733  0.80558716  0.53660302     0.17730
H4271       H  0.60577783  0.80195730  0.55373661     0.17740
F4272       F  0.58147926  0.80272624  0.58613974    -0.20020
C4273       C  0.67688219  0.74597125  0.40062176    -0.21450
C4274       C  0.68961362  0.76057157  0.39026360    -0.09500
C4275       C  0.68545556  0.78199193  0.39271936     0.29360
C4276       C  0.67015460  0.78865610  0.40693303    -0.21450
C4277       C  0.65855218  0.77407331  0.41858670    -0.09510
C4278       C  0.66123127  0.75265775  0.41449044     0.29370
F4279       F  0.65077882  0.73820020  0.42605029    -0.20030
H4280       H  0.68022434  0.72943229  0.39930918     0.17730
H4281       H  0.66886417  0.80516808  0.41040327     0.17740
F4282       F  0.69806194  0.79644917  0.38352326    -0.20020
C4283       C  0.82434918  0.74667882  0.41640664    -0.21450
C4284       C  0.82253591  0.76398254  0.40307784    -0.09500
C4285       C  0.83669923  0.78064299  0.40490327     0.29360
C4286       C  0.85085109  0.78103512  0.42162699    -0.21450
C4287       C  0.85081612  0.76484387  0.43655506    -0.09510
C4288       C  0.83843651  0.74699574  0.43301709     0.29370
F4289       F  0.83883646  0.73048071  0.44639414    -0.20030
H4290       H  0.81355683  0.73365212  0.41499824     0.17730
H4291       H  0.86051171  0.79478403  0.42385072     0.17740
F4292       F  0.83511960  0.79756731  0.39216172    -0.20020
C4293       C  0.81651399  0.74632660  0.30627963    -0.21450
C4294       C  0.79464478  0.74448972  0.30472057    -0.09500
C4295       C  0.78541705  0.74241326  0.28478298     0.29360
C4296       C  0.79784010  0.74412729  0.26665902    -0.21450
C4297       C  0.81950159  0.74790861  0.26836113    -0.09510
C4298       C  0.82885827  0.74790541  0.28832612     0.29370
F4299       F  0.84982121  0.75124634  0.29047877    -0.20030
H4300       H  0.82388382  0.74812192  0.32146495     0.17730
H4301       H  0.79030812  0.74439653  0.25145582     0.17740
F4302       F  0.76422528  0.74117793  0.28280966    -0.20020
C4303       C  0.84617925  0.74947251  0.59408080    -0.21450
C4304       C  0.84234560  0.77051659  0.59911768    -0.09500
C4305       C  0.85629559  0.78577607  0.59155954     0.29360
C4306       C  0.87201391  0.78027717  0.57710398    -0.21450
C4307       C  0.87409779  0.75952542  0.57007214    -0.09510
C4308       C  0.86192584  0.74398980  0.57978877     0.29370
F4309       F  0.86298004  0.72394531  0.57297324    -0.20030
H4310       H  0.83545247  0.73746562  0.59946004     0.17730
H4311       H  0.88069498  0.79263709  0.56937772     0.17740
F4312       F  0.85282170  0.80627332  0.59569463    -0.20020
C4313       C  0.69116118  0.77011948  0.58381872    -0.21450
C4314       C  0.70875981  0.78296243  0.57988181    -0.09500
C4315       C  0.70880936  0.79552044  0.56178602     0.29360
C4316       C  0.69303816  0.79318868  0.54685973    -0.21450
C4317       C  0.67686595  0.77853517  0.54970266    -0.09510
C4318       C  0.67525528  0.76791653  0.56882263     0.29370
F4319       F  0.65959574  0.75391133  0.57212983    -0.20030
H4320       H  0.69046409  0.76051155  0.59776916     0.17730
H4321       H  0.69419249  0.80193343  0.53235911     0.17740
F4322       F  0.72484222  0.80889627  0.55766170    -0.20020
C4323       C  0.71263611  0.80986116  0.67585398    -0.21450
C4324       C  0.73354483  0.80423900  0.68017482    -0.09500
C4325       C  0.73988009  0.80214599  0.70121106     0.29360
C4326       C  0.72486307  0.80290388  0.71727534    -0.21450
C4327       C  0.70353308  0.80588001  0.71249873    -0.09510
C4328       C  0.69773466  0.81060240  0.69183889     0.29370
F4329       F  0.67722218  0.81360963  0.68682201    -0.20030
H4330       H  0.70740169  0.81176445  0.65982372     0.17730
H4331       H  0.72954825  0.79889740  0.73308670     0.17740
F4332       F  0.75990527  0.79665952  0.70603879    -0.20020
C4333       C  0.69303674  0.48349156  0.56247319    -0.21450
C4334       C  0.71454374  0.48348540  0.55757501    -0.09500
C4335       C  0.72062597  0.48333944  0.53638693     0.29360
C4336       C  0.70547439  0.48597582  0.52062235    -0.21450
C4337       C  0.68426389  0.48866379  0.52591210    -0.09510
C4338       C  0.67801644  0.48618652  0.54681304     0.29370
F4339       F  0.65754525  0.48851672  0.55228599    -0.20030
H4340       H  0.68795049  0.48342101  0.57864764     0.17730
H4341       H  0.71054015  0.48807398  0.50458029     0.17740
F4342       F  0.74125205  0.48339095  0.53105210    -0.20020
C4343       C  0.84132594  0.48472822  0.64016863    -0.21450
C4344       C  0.83044774  0.50187212  0.63186491    -0.09500
C4345       C  0.83800280  0.52216001  0.63564325     0.29360
C4346       C  0.85445998  0.52531880  0.64979195    -0.21450
C4347       C  0.86301988  0.50830976  0.66072088    -0.09510
C4348       C  0.85744095  0.48789362  0.65471193     0.29370
F4349       F  0.86567508  0.47112756  0.66486571    -0.20030
H4350       H  0.83554959  0.46901252  0.63761216     0.17730
H4351       H  0.85840689  0.54115215  0.65428953     0.17740
F4352       F  0.82762713  0.53899724  0.62783466    -0.20020
C4353       C  0.68104662  0.50544901  0.65149427    -0.21450
C4354       C  0.69951959  0.49445046  0.65673689    -0.09500
C4355       C  0.70054272  0.48387015  0.67602036     0.29360
C4356       C  0.68484412  0.48693338  0.69079789    -0.21450
C4357       C  0.66790756  0.50034165  0.68655132    -0.09510
C4358       C  0.66523872  0.50837256  0.66633143     0.29370
F4359       F  0.64866209  0.52087387  0.66164155    -0.20030
H4360       H  0.67959902  0.51328392  0.63652290     0.17730
H4361       H  0.68674096  0.48006604  0.70620854     0.17740
F4362       F  0.71763691  0.47243229  0.68156762    -0.20020
C4363       C  0.74616994  0.67194286  0.41997666    -0.21450
C4364       C  0.76688763  0.66585186  0.42465555    -0.09500
C4365       C  0.78296095  0.67127589  0.41065528     0.29360
C4366       C  0.77864944  0.68461332  0.39367567    -0.21450
C4367       C  0.75825500  0.69254348  0.39030014    -0.09510
C4368       C  0.74182213  0.68500446  0.40287213     0.29370
F4369       F  0.72215654  0.69294576  0.40072755    -0.20030
H4370       H  0.73357577  0.66812859  0.43071928     0.17730
H4371       H  0.79168307  0.69073680  0.38466729     0.17740
F4372       F  0.80317848  0.66607012  0.41496203    -0.20020
C4373       C  0.85078480  0.67113915  0.47494482    -0.21450
C4374       C  0.83975053  0.66163816  0.49143405    -0.09500
C4375       C  0.84627310  0.66576195  0.51209071     0.29360
C4376       C  0.86195452  0.68071838  0.51611350    -0.21450
C4377       C  0.87144198  0.69180924  0.49964144    -0.09510
C4378       C  0.86650936  0.68602161  0.47896718     0.29370
F4379       F  0.87473334  0.69692523  0.46267823    -0.20030
H4380       H  0.84562111  0.66880362  0.45896253     0.17730
H4381       H  0.86486818  0.68538113  0.53214366     0.17740
F4382       F  0.83549533  0.65749274  0.52844671    -0.20020
C4383       C  0.70526137  0.69220940  0.47446218    -0.21450
C4384       C  0.70504278  0.67929093  0.49221011    -0.09500
C4385       C  0.68828549  0.68057578  0.50632259     0.29360
C4386       C  0.67326140  0.69635456  0.50388767    -0.21450
C4387       C  0.67488798  0.71094124  0.48737818    -0.09510
C4388       C  0.69027356  0.70782860  0.47191097     0.29370
F4389       F  0.69194137  0.72083095  0.45517912    -0.20030
H4390       H  0.71797800  0.69112476  0.46325531     0.17730
H4391       H  0.66142677  0.69816636  0.51590228     0.17740
F4392       F  0.68771736  0.66817707  0.52357384    -0.20020
C4393       C  0.75110807  0.68255422  0.57110036    -0.21450
C4394       C  0.76906248  0.68023155  0.55846691    -0.09500
C4395       C  0.78681505  0.69265375  0.56253570     0.29360
C4396       C  0.78559123  0.70885400  0.57696622    -0.21450
C4397       C  0.76683905  0.71270140  0.58774319    -0.09510
C4398       C  0.74996593  0.69877019  0.58571273     0.29370
F4399       F  0.73166234  0.70224588  0.59600705    -0.20030
H4400       H  0.73725634  0.67312756  0.56831858     0.17730
H4401       H  0.79885806  0.71933145  0.57869236     0.17740
F4402       F  0.80480846  0.69020082  0.55143250    -0.20020
C4403       C  0.72857123  0.56508455  0.46862869    -0.21450
C4404       C  0.72499206  0.58674153  0.46847509    -0.09500
C4405       C  0.70437919  0.59411385  0.46583267     0.29360
C4406       C  0.68750494  0.58013766  0.46513820    -0.21450
C4407       C  0.69081698  0.55851532  0.46706812    -0.09510
C4408       C  0.71161615  0.55100427  0.46783701     0.29370
F4409       F  0.71542236  0.53029084  0.47040103    -0.20030
H4410       H  0.74427412  0.55911765  0.47129707     0.17730
H4411       H  0.67166415  0.58631337  0.46469879     0.17740
F4412       F  0.70040715  0.61495586  0.46600077    -0.20020
C4413       C  0.79403963  0.56040259  0.56270496    -0.21450
C4414       C  0.78043538  0.54397245  0.55740479    -0.09500
C4415       C  0.77002329  0.54435839  0.53804696     0.29360
C4416       C  0.77254249  0.56133302  0.52453996    -0.21450
C4417       C  0.78488973  0.57849429  0.53043167    -0.09510
C4418       C  0.79611489  0.57773796  0.54936497     0.29370
F4419       F  0.80798990  0.59424007  0.55547352    -0.20030
H4420       H  0.80174956  0.56053410  0.57782440     0.17730
H4421       H  0.76327184  0.56195068  0.51031001     0.17740
F4422       F  0.75591967  0.52923084  0.53308911    -0.20020
C4423       C  0.66343408  0.36966931  0.00504677    -0.21450
C4424       C  0.67767680  0.37428293  0.98901102    -0.09500
C4425       C  0.67263062  0.36859426  0.96832834     0.29360
C4426       C  0.65528854  0.35578379  0.96430849    -0.21450
C4427       C  0.64316526  0.34815159  0.98092118    -0.09510
C4428       C  0.64625481  0.35657699  0.00105557     0.29370
F4429       F  0.63475724  0.34940426  0.01744248    -0.20030
H4430       H  0.66709822  0.37379518  0.02107170     0.17730
H4431       H  0.65338944  0.34929995  0.94877268     0.17740
F4432       F  0.68606337  0.37307682  0.95245303    -0.20020
C4433       C  0.80498355  0.32365607  0.00808370    -0.21450
C4434       C  0.80793209  0.34213976  0.99658735    -0.09500
C4435       C  0.82643637  0.34434962  0.98457243     0.29360
C4436       C  0.84063223  0.32767485  0.98285111    -0.21450
C4437       C  0.83644385  0.30861164  0.99285254    -0.09510
C4438       C  0.81892840  0.30705476  0.00616023     0.29370
F4439       F  0.81484013  0.28913960  0.01683623    -0.20030
H4440       H  0.79117522  0.32147922  0.01772713     0.17730
H4441       H  0.85420991  0.32926318  0.97277800     0.17740
F4442       F  0.83033562  0.36213387  0.97364684    -0.20020
C4443       C  0.78424510  0.46691570  0.01700347    -0.21450
C4444       C  0.79263662  0.44661188  0.01543812    -0.09500
C4445       C  0.81459689  0.44405350  0.01574922     0.29360
C4446       C  0.82769589  0.46150512  0.01504411    -0.21450
C4447       C  0.81917342  0.48167296  0.01419368    -0.09510
C4448       C  0.79743866  0.48439286  0.01620673     0.29370
F4449       F  0.78886875  0.50377240  0.01495710    -0.20030
H4450       H  0.76741311  0.46936448  0.01671932     0.17730
H4451       H  0.84447836  0.45923242  0.01333196     0.17740
F4452       F  0.82340086  0.42475442  0.01490993    -0.20020
C4453       C  0.64751095  0.03501046  0.32776762    -0.21450
C4454       C  0.64257148  0.01388221  0.32421785    -0.09500
C4455       C  0.65323486  0.99860995  0.33604016     0.29360
C4456       C  0.66966790  0.00425529  0.34960951    -0.21450
C4457       C  0.67598733  0.02520274  0.35153738    -0.09510
C4458       C  0.66418376  0.04064018  0.34111240     0.29370
F4459       F  0.67042307  0.06090653  0.34178329    -0.20030
H4460       H  0.64020774  0.04702216  0.31825270     0.17730
H4461       H  0.67892657  0.99202312  0.35688151     0.17740
F4462       F  0.64952181  0.97803962  0.33248024    -0.20020
C4463       C  0.81154091  0.04943291  0.31568276    -0.21450
C4464       C  0.81097433  0.03159662  0.32847944    -0.09500
C4465       C  0.82696963  0.01657322  0.32660417     0.29360
C4466       C  0.84168213  0.01821091  0.31044089    -0.21450
C4467       C  0.84064119  0.03483096  0.29602399    -0.09510
C4468       C  0.82630918  0.05117774  0.29968852     0.29370
F4469       F  0.82551297  0.06815122  0.28692916    -0.20030
H4470       H  0.79967122  0.06146332  0.31723274     0.17730
H4471       H  0.85269783  0.00552431  0.30817667     0.17740
F4472       F  0.82704974  0.99921522  0.33884934    -0.20020
C4473       C  0.78751583  0.04881220  0.44801792    -0.21450
C4474       C  0.79166295  0.05063030  0.42651463    -0.09500
C4475       C  0.81230295  0.05472397  0.41991607     0.29360
C4476       C  0.82882073  0.05409718  0.43424884    -0.21450
C4477       C  0.82505151  0.04937716  0.45537752    -0.09510
C4478       C  0.80414745  0.04819853  0.46246430     0.29370
F4479       F  0.79991853  0.04368666  0.48278149    -0.20030
H4480       H  0.77173601  0.04543288  0.45337079     0.17730
H4481       H  0.84477132  0.05535513  0.42848000     0.17740
F4482       F  0.81673995  0.05690796  0.39924598    -0.20020
C4483       C  0.67013302  0.07798757  0.96345749    -0.21450
C4484       C  0.67530586  0.05662799  0.96347703    -0.09500
C4485       C  0.69652554  0.05074770  0.96130086     0.29360
C4486       C  0.71227987  0.06596342  0.96211463    -0.21450
C4487       C  0.70697018  0.08697358  0.96521863    -0.09510
C4488       C  0.68583835  0.09306039  0.96459872     0.29370
F4489       F  0.68039051  0.11340194  0.96720156    -0.20030
H4490       H  0.65392044  0.08298981  0.96464587     0.17730
H4491       H  0.72857098  0.06109115  0.96265530     0.17740
F4492       F  0.70222893  0.03032124  0.96098308    -0.20020
C4493       C  0.85562252  0.17198443  0.98396448    -0.21450
C4494       C  0.85773104  0.17835761  0.00488885    -0.09500
C4495       C  0.84540541  0.16860860  0.02027172     0.29360
C4496       C  0.82925514  0.15500617  0.01441421    -0.21450
C4497       C  0.82506512  0.15125976  0.99318503    -0.09510
C4498       C  0.83916171  0.15870269  0.97805518     0.29370
F4499       F  0.83520902  0.15563062  0.95741732    -0.20030
H4500       H  0.86463037  0.17971186  0.97182853     0.17730
H4501       H  0.81828339  0.14971825  0.02625093     0.17740
F4502       F  0.84678362  0.17480988  0.04052712    -0.20020
C4503       C  0.67512625  0.18389676  0.00276465    -0.21450
C4504       C  0.69329356  0.18475719  0.99038470    -0.09500
C4505       C  0.69531449  0.20072658  0.97540212     0.29360
C4506       C  0.68028474  0.21642248  0.97397906    -0.21450
C4507       C  0.66301348  0.21681242  0.98764867    -0.09510
C4508       C  0.66006941  0.19985952  0.00152038     0.29370
F4509       F  0.64339465  0.19925720  0.01471375    -0.20030
H4510       H  0.67325474  0.17163650  0.01432362     0.17730
H4511       H  0.68285707  0.22891113  0.96280516     0.17740
F4512       F  0.71234780  0.20167118  0.96265852    -0.20020
C4513       C  0.73732925  0.19341454  0.08631803    -0.21450
C4514       C  0.75233194  0.20938435  0.08650872    -0.09500
C4515       C  0.77007335  0.20789474  0.07357842     0.29360
C4516       C  0.77145802  0.19205147  0.05879838    -0.21450
C4517       C  0.75502220  0.17761671  0.05648245    -0.09510
C4518       C  0.73861572  0.17750906  0.07137662     0.29370
F4519       F  0.72272784  0.16341279  0.07026205    -0.20030
H4520       H  0.72363812  0.19433328  0.09632190     0.17730
H4521       H  0.78456256  0.19221587  0.04800382     0.17740
F4522       F  0.78517530  0.22287384  0.07399830    -0.20020
C4523       C  0.69367148  0.30787611  0.17138563    -0.21450
C4524       C  0.71464945  0.30314027  0.17625768    -0.09500
C4525       C  0.72105000  0.30297403  0.19733726     0.29360
C4526       C  0.70600432  0.30452370  0.21322791    -0.21450
C4527       C  0.68465699  0.30652798  0.20815248    -0.09510
C4528       C  0.67874455  0.30958587  0.18722817     0.29370
F4529       F  0.65813870  0.31133510  0.18198511    -0.20030
H4530       H  0.68846678  0.30818637  0.15523763     0.17730
H4531       H  0.71070959  0.30168072  0.22928377     0.17740
F4532       F  0.74119075  0.29833418  0.20256382    -0.20020
C4533       C  0.83184641  0.28543697  0.08127823    -0.21450
C4534       C  0.82215378  0.27072465  0.09433531    -0.09500
C4535       C  0.82889888  0.24978178  0.09361775     0.29360
C4536       C  0.84358815  0.24335749  0.07859810    -0.21450
C4537       C  0.85138308  0.25770323  0.06393435    -0.09510
C4538       C  0.84622692  0.27899351  0.06606768     0.29370
F4539       F  0.85320470  0.29316440  0.05183365    -0.20030
H4540       H  0.82643038  0.30148752  0.08114950     0.17730
H4541       H  0.84696210  0.22685931  0.07691967     0.17740
F4542       F  0.81936923  0.23514011  0.10572230    -0.20020
C4543       C  0.76528088  0.36907689  0.06949640    -0.21450
C4544       C  0.74421922  0.37085637  0.06315606    -0.09500
C4545       C  0.72861730  0.36039452  0.07457577     0.29360
C4546       C  0.73425017  0.34675247  0.09076865    -0.21450
C4547       C  0.75549939  0.34296372  0.09535702    -0.09510
C4548       C  0.77096059  0.35499504  0.08535016     0.29370
F4549       F  0.79161353  0.35112706  0.08896448    -0.20030
H4550       H  0.77754751  0.37665385  0.06051614     0.17730
H4551       H  0.72216039  0.33717239  0.09788814     0.17740
F4552       F  0.70820981  0.36151909  0.06848820    -0.20020
C4553       C  0.65660983  0.26327864  0.06590240    -0.21450
C4554       C  0.65613103  0.27965319  0.05130102    -0.09500
C4555       C  0.67008132  0.29647650  0.05355553     0.29360
C4556       C  0.68585414  0.29574078  0.06866802    -0.21450
C4557       C  0.68807214  0.27814265  0.08166922    -0.09510
C4558       C  0.67251606  0.26245384  0.08105776     0.29370
F4559       F  0.67388062  0.24529913  0.09351024    -0.20030
H4560       H  0.64600458  0.25014069  0.06428021     0.17730
H4561       H  0.69726333  0.30829473  0.06915994     0.17740
F4562       F  0.66952439  0.31280839  0.03996147    -0.20020
C4563       C  0.77571767  0.22355763  0.21375324    -0.21450
C4564       C  0.77727472  0.20262377  0.20727421    -0.09500
C4565       C  0.78091972  0.19837035  0.18599473     0.29360
C4566       C  0.78071679  0.21458166  0.17129937    -0.21450
C4567       C  0.77694373  0.23521255  0.17757065    -0.09510
C4568       C  0.77524739  0.23975650  0.19897281     0.29370
F4569       F  0.77081070  0.25947842  0.20535550    -0.20030
H4570       H  0.77274008  0.22723530  0.23001663     0.17730
H4571       H  0.78174225  0.21081270  0.15481114     0.17740
F4572       F  0.78310847  0.17840658  0.17921828    -0.20020
C4573       C  0.70424412  0.21159474  0.28260598    -0.21450
C4574       C  0.71728017  0.20888781  0.26507387    -0.09500
C4575       C  0.71662339  0.22376949  0.24885813     0.29360
C4576       C  0.70235544  0.24020993  0.24949348    -0.21450
C4577       C  0.68806678  0.24199148  0.26600566    -0.09510
C4578       C  0.68940983  0.22795416  0.28294131     0.29370
F4579       F  0.67550855  0.22919139  0.29895566    -0.20030
H4580       H  0.70445413  0.20023669  0.29518757     0.17730
H4581       H  0.70126499  0.25061631  0.23611843     0.17740
F4582       F  0.72891061  0.22163359  0.23164328    -0.20020
C4583       C  0.84009222  0.11872113  0.26566554    -0.21450
C4584       C  0.82737522  0.13078689  0.25239484    -0.09500
C4585       C  0.83187520  0.13122728  0.23084675     0.29360
C4586       C  0.84684822  0.11754807  0.22245978    -0.21450
C4587       C  0.85790262  0.10375359  0.23552878    -0.09510
C4588       C  0.85551078  0.10553550  0.25733762     0.29370
F4589       F  0.86567870  0.09210260  0.27034077    -0.20030
H4590       H  0.83658577  0.11782129  0.28222618     0.17730
H4591       H  0.84802859  0.11603450  0.20562371     0.17740
F4592       F  0.81951484  0.14238350  0.21757602    -0.20020
C4593       C  0.77082428  0.11858403  0.33473984    -0.21450
C4594       C  0.75492386  0.12799068  0.32277565    -0.09500
C4595       C  0.73382453  0.12374552  0.32789737     0.29360
C4596       C  0.72885638  0.10826919  0.34264512    -0.21450
C4597       C  0.74483461  0.09688503  0.35256629    -0.09510
C4598       C  0.76584894  0.10308068  0.34950454     0.29370
F4599       F  0.78169176  0.09197774  0.35842309    -0.20030
H4600       H  0.78714946  0.12112682  0.33069576     0.17730
H4601       H  0.71263910  0.10341624  0.34431622     0.17740
F4602       F  0.71809091  0.13224498  0.31631289    -0.20020
C4603       C  0.69424179  0.09228719  0.27038713    -0.21450
C4604       C  0.69435684  0.10645744  0.25359526    -0.09500
C4605       C  0.67770334  0.10621736  0.23920569     0.29360
C4606       C  0.66235233  0.09059054  0.24048142    -0.21450
C4607       C  0.66338814  0.07507463  0.25615196    -0.09510
C4608       C  0.67888845  0.07682565  0.27181310     0.29370
F4609       F  0.68015304  0.06284143  0.28777514    -0.20030
H4610       H  0.70681841  0.09246438  0.28183806     0.17730
H4611       H  0.65048932  0.08985135  0.22834709     0.17740
F4612       F  0.67739224  0.11971642  0.22279921    -0.20020
C4613       C  0.75910686  0.04390134  0.04361229    -0.21450
C4614       C  0.77052575  0.04725374  0.06205216    -0.09500
C4615       C  0.78185008  0.06583272  0.06473938     0.29360
C4616       C  0.78036722  0.08163295  0.04965288    -0.21450
C4617       C  0.76783685  0.07868652  0.03183407    -0.09510
C4618       C  0.75776725  0.05951862  0.02851899     0.29370
F4619       F  0.74489473  0.05675872  0.01177889    -0.20030
H4620       H  0.74987064  0.02980234  0.04168942     0.17730
H4621       H  0.78795345  0.09652632  0.05239967     0.17740
F4622       F  0.79268694  0.06935478  0.08268787    -0.20020
C4623       C  0.68903377  0.97952581  0.03483039    -0.21450
C4624       C  0.68189049  0.99951953  0.02880615    -0.09500
C4625       C  0.69078611  0.01723227  0.03852720     0.29360
C4626       C  0.70502309  0.01498565  0.05470428    -0.21450
C4627       C  0.71128548  0.99524215  0.06153894    -0.09510
C4628       C  0.70383692  0.97736849  0.05116161     0.29370
F4629       F  0.71008377  0.95805782  0.05735449    -0.20030
H4630       H  0.68264040  0.96568343  0.02748931     0.17730
H4631       H  0.71098687  0.02893181  0.06227276     0.17740
F4632       F  0.68547975  0.03699362  0.03278874    -0.20020
C4633       C  0.77010072  0.06599026  0.17857539    -0.21450
C4634       C  0.75476918  0.06712974  0.16281594    -0.09500
C4635       C  0.74275392  0.08539351  0.16074246     0.29360
C4636       C  0.74481207  0.10143572  0.17547747    -0.21450
C4637       C  0.75898887  0.09954960  0.19235304    -0.09510
C4638       C  0.77236450  0.08201761  0.19311744     0.29370
F4639       F  0.78678899  0.07961800  0.20860734    -0.20030
H4640       H  0.77985346  0.05219271  0.18014317     0.17730
H4641       H  0.73443549  0.11479315  0.17431699     0.17740
F4642       F  0.72788673  0.08702245  0.14558663    -0.20020
C4643       C  0.82476570  0.03633726  0.13817961    -0.21450
C4644       C  0.82314195  0.01449540  0.13620069    -0.09500
C4645       C  0.83893835  0.00187619  0.14481623     0.29360
C4646       C  0.85431108  0.01083515  0.15771988    -0.21450
C4647       C  0.85388538  0.03234458  0.16228471    -0.09510
C4648       C  0.83994416  0.04524354  0.15125094     0.29370
F4649       F  0.83872391  0.06592016  0.15577915    -0.20030
H4650       H  0.81250497  0.04629911  0.13189301     0.17730
H4651       H  0.86464848  0.00057987  0.16647860     0.17740
F4652       F  0.83755816  0.98075999  0.14355105    -0.20020
C4653       C  0.67756863  0.99204978  0.19817816    -0.21450
C4654       C  0.66093950  0.00595446  0.19412950    -0.09500
C4655       C  0.65879847  0.01462958  0.17411901     0.29360
C4656       C  0.67471161  0.01165581  0.15937221    -0.21450
C4657       C  0.69283789  0.99997953  0.16444301    -0.09510
C4658       C  0.69339666  0.98897334  0.18348509     0.29370
F4659       F  0.71011992  0.97692358  0.18884814    -0.20030
H4660       H  0.67912113  0.98471272  0.21340689     0.17730
H4661       H  0.67358825  0.01987071  0.14457938     0.17740
F4662       F  0.64262678  0.02769299  0.16957208    -0.20020
C4663       C  0.72989524  0.80029691  0.29189530    -0.21450
C4664       C  0.73195695  0.80630208  0.31294727    -0.09500
C4665       C  0.72977283  0.82757411  0.31816152     0.29360
C4666       C  0.72781326  0.84262427  0.30245847    -0.21450
C4667       C  0.72770064  0.83676574  0.28137950    -0.09510
C4668       C  0.72790253  0.81546800  0.27614285     0.29370
F4669       F  0.72837446  0.80949705  0.25578578    -0.20030
H4670       H  0.73174025  0.78407637  0.28746785     0.17730
H4671       H  0.72786570  0.85901064  0.30669124     0.17740
F4672       F  0.73110510  0.83398377  0.33836018    -0.20020
C4673       C  0.80169764  0.84779453  0.20020423    -0.21450
C4674       C  0.78151509  0.84146683  0.20632695    -0.09500
C4675       C  0.77606604  0.82019529  0.20509260     0.29360
C4676       C  0.79165929  0.80531018  0.20123923    -0.21450
C4677       C  0.81260045  0.81163848  0.19871063    -0.09510
C4678       C  0.81718397  0.83296993  0.19633137     0.29370
F4679       F  0.83723607  0.83944985  0.19309747    -0.20030
H4680       H  0.80602748  0.86416640  0.20042524     0.17730
H4681       H  0.78786173  0.78890784  0.20307643     0.17740
F4682       F  0.75654608  0.81357400  0.21046926    -0.20020
C4683       C  0.72215791  0.92451518  0.15688346    -0.21450
C4684       C  0.73564838  0.91213679  0.16898869    -0.09500
C4685       C  0.75702497  0.91084363  0.16365407     0.29360
C4686       C  0.76528522  0.92418419  0.14842504    -0.21450
C4687       C  0.75214929  0.93831159  0.13795723    -0.09510
C4688       C  0.73031410  0.93724850  0.14106567     0.29370
F4689       F  0.71733967  0.95096498  0.13123758    -0.20030
H4690       H  0.70573766  0.92593170  0.16107611     0.17730
H4691       H  0.78216650  0.92513220  0.14650507     0.17740
F4692       F  0.77042385  0.89922100  0.17545347    -0.20020
C4693       C  0.65715462  0.92201831  0.23025766    -0.21450
C4694       C  0.67081130  0.91472504  0.24586780    -0.09500
C4695       C  0.66684626  0.92015753  0.26683159     0.29360
C4696       C  0.65115020  0.93469151  0.27170103    -0.21450
C4697       C  0.63953409  0.94429565  0.25570164    -0.09510
C4698       C  0.64170213  0.93685271  0.23508871     0.29370
F4699       F  0.63105390  0.94620821  0.21921064    -0.20030
H4700       H  0.66021100  0.91840251  0.21399225     0.17730
H4701       H  0.65015404  0.94055163  0.28756166     0.17740
F4702       F  0.68001484  0.91358722  0.28222877    -0.20020
C4703       C  0.82098694  0.93792858  0.24223445    -0.21450
C4704       C  0.80265835  0.94040207  0.23001346    -0.09500
C4705       C  0.80124289  0.95794610  0.21671735     0.29360
C4706       C  0.81671034  0.97339344  0.21720226    -0.21450
C4707       C  0.83407759  0.97178851  0.23071761    -0.09510
C4708       C  0.83662108  0.95343049  0.24255136     0.29370
F4709       F  0.85326627  0.95120578  0.25565708    -0.20030
H4710       H  0.82270235  0.92455505  0.25250200     0.17730
H4711       H  0.81460150  0.98719650  0.20757126     0.17740
F4712       F  0.78436644  0.96089749  0.20403958    -0.20020
C4713       C  0.73013501  0.94411168  0.30429674    -0.21450
C4714       C  0.74780727  0.93145195  0.30115175    -0.09500
C4715       C  0.76490110  0.93276908  0.31498112     0.29360
C4716       C  0.76518785  0.94837201  0.33027382    -0.21450
C4717       C  0.74849098  0.96266945  0.33166778    -0.09510
C4718       C  0.73041340  0.95962280  0.31944918     0.29370
F4719       F  0.71364956  0.97263566  0.32108590    -0.20030
H4720       H  0.71670405  0.94302218  0.29391054     0.17730
H4721       H  0.77922500  0.95047465  0.33963623     0.17740
F4722       F  0.78220291  0.92071183  0.31216101    -0.20020
C4723       C  0.72367720  0.17688466  0.90311170    -0.21450
C4724       C  0.73897906  0.18422892  0.88921774    -0.09500
C4725       C  0.75956792  0.17626257  0.89065844     0.29360
C4726       C  0.76541137  0.16374448  0.90771120    -0.21450
C4727       C  0.75071042  0.15917684  0.92331549    -0.09510
C4728       C  0.72951734  0.16461257  0.92023235     0.29370
F4729       F  0.71497995  0.16026203  0.93516066    -0.20030
H4730       H  0.70788590  0.18319231  0.90254515     0.17730
H4731       H  0.78180425  0.15978025  0.90994795     0.17740
F4732       F  0.77472976  0.18341110  0.87755482    -0.20020
C4733       C  0.66260843  0.24510932  0.89984570    -0.21450
C4734       C  0.67497368  0.25892639  0.88803395    -0.09500
C4735       C  0.67134202  0.28052832  0.88976355     0.29360
C4736       C  0.65706739  0.28817510  0.90456788    -0.21450
C4737       C  0.64587860  0.27437482  0.91749046    -0.09510
C4738       C  0.64801374  0.25274343  0.91434990     0.29370
F4739       F  0.63803706  0.23904871  0.92719604    -0.20030
H4740       H  0.66572346  0.22847791  0.89933128     0.17730
H4741       H  0.65605150  0.30486621  0.90714847     0.17740
F4742       F  0.68358781  0.29426753  0.87910829    -0.20020
C4743       C  0.82778321  0.25415248  0.89998296    -0.21450
C4744       C  0.80909920  0.24280847  0.90194184    -0.09500
C4745       C  0.80753034  0.22717083  0.91733048     0.29360
C4746       C  0.82309813  0.22518289  0.93250548    -0.21450
C4747       C  0.84030146  0.23890443  0.93262263    -0.09510
C4748       C  0.84342421  0.25221825  0.91522953     0.29370
F4749       F  0.86050133  0.26485701  0.91395790    -0.20030
H4750       H  0.82940136  0.26595125  0.88791041     0.17730
H4751       H  0.82059914  0.21426459  0.94523733     0.17740
F4752       F  0.79005151  0.21508385  0.91877701    -0.20020
C4753       C  0.76860062  0.33011982  0.90368527    -0.21450
C4754       C  0.75055467  0.31750177  0.90228046    -0.09500
C4755       C  0.73231634  0.32349316  0.91313853     0.29360
C4756       C  0.73291922  0.34029918  0.92691183    -0.21450
C4757       C  0.75157175  0.35150388  0.92999393    -0.09510
C4758       C  0.76916183  0.34703669  0.91755907     0.29370
F4759       F  0.78751532  0.35740472  0.92056821    -0.20030
H4760       H  0.78280224  0.32586763  0.89541165     0.17730
H4761       H  0.71923188  0.34357477  0.93642411     0.17740
F4762       F  0.71427638  0.31228850  0.91152496    -0.20020
C4763       C  0.77775915  0.22434817  0.78685171    -0.21450
C4764       C  0.78235087  0.22310570  0.80830215    -0.09500
C4765       C  0.80282512  0.21793909  0.81465064     0.29360
C4766       C  0.81894744  0.21658872  0.79993638    -0.21450
C4767       C  0.81491972  0.22037641  0.77865457    -0.09510
C4768       C  0.79394859  0.22288914  0.77201872     0.29370
F4769       F  0.78947489  0.22677381  0.75160735    -0.20030
H4770       H  0.76213073  0.22869521  0.78171710     0.17730
H4771       H  0.83493505  0.21453104  0.80540314     0.17740
F4772       F  0.80765576  0.21661419  0.83531434    -0.20020
C4773       C  0.78166148  0.87205424  0.57358808    -0.21450
C4774       C  0.76003237  0.87646174  0.57317716    -0.09500
C4775       C  0.74704434  0.86717781  0.58833406     0.29360
C4776       C  0.75527767  0.85238464  0.60238864    -0.21450
C4777       C  0.77639922  0.84611914  0.60105368    -0.09510
C4778       C  0.78975471  0.85677165  0.58715403     0.29370
F4779       F  0.81007447  0.85071141  0.58504361    -0.20030
H4780       H  0.79186625  0.87858744  0.56169645     0.17730
H4781       H  0.74457304  0.84397779  0.61253803     0.17740
F4782       F  0.72601774  0.87064681  0.58798727    -0.20020
C4783       C  0.68151440  0.87235758  0.48166029    -0.21450
C4784       C  0.68730419  0.87466281  0.50279130    -0.09500
C4785       C  0.67655109  0.86315788  0.51808043     0.29360
C4786       C  0.66251288  0.84748401  0.51203496    -0.21450
C4787       C  0.65897380  0.84322948  0.49073196    -0.09510
C4788       C  0.66737032  0.85672205  0.47560539     0.29370
F4789       F  0.66455269  0.85274409  0.45494298    -0.20030
H4790       H  0.69002458  0.88077976  0.46963125     0.17730
H4791       H  0.65635157  0.83703327  0.52390290     0.17740
F4792       F  0.68224670  0.86459866  0.53850947    -0.20020
C4793       C  0.81931455  0.83923204  0.52595374    -0.21450
C4794       C  0.81932196  0.85623017  0.51202740    -0.09500
C4795       C  0.83701521  0.85950060  0.49915938     0.29360
C4796       C  0.85258361  0.84420752  0.49786353    -0.21450
C4797       C  0.85067605  0.82566966  0.50940592    -0.09510
C4798       C  0.83484031  0.82400172  0.52464440     0.29370
F4799       F  0.83340434  0.80684940  0.53711733    -0.20030
H4800       H  0.80634421  0.83669063  0.53661582     0.17730
H4801       H  0.86501746  0.84604032  0.48645129     0.17740
F4802       F  0.83844224  0.87650667  0.48650944    -0.20020
C4803       C  0.74493004  0.83403594  0.44680650    -0.21450
C4804       C  0.75779602  0.85163533  0.44447698    -0.09500
C4805       C  0.76836664  0.85486220  0.42545189     0.29360
C4806       C  0.76727778  0.83969187  0.40968044    -0.21450
C4807       C  0.75542215  0.82133133  0.41262221    -0.09510
C4808       C  0.74362234  0.81909179  0.43115827     0.29370
F4809       F  0.73177800  0.80184984  0.43494134    -0.20030
H4810       H  0.73634385  0.83142987  0.46121261     0.17730
H4811       H  0.77642650  0.84189644  0.39557517     0.17740
F4812       F  0.78082256  0.87184815  0.42266230    -0.20020
C4813       C  0.83611570  0.96322762  0.52226647    -0.21450
C4814       C  0.82975854  0.98375177  0.51833512    -0.09500
C4815       C  0.80843753  0.98912562  0.51936440     0.29360
C4816       C  0.79336773  0.97348037  0.52192429    -0.21450
C4817       C  0.79964089  0.95250577  0.52321955    -0.09510
C4818       C  0.82113313  0.94762887  0.52492483     0.29370
F4819       F  0.82759974  0.92750117  0.52691163    -0.20030
H4820       H  0.85259713  0.95903892  0.52161567     0.17730
H4821       H  0.77689841  0.97749812  0.52046753     0.17740
F4822       F  0.80214981  0.00903293  0.51552692    -0.20020
C4823       C  0.72792411  0.97077396  0.46489858    -0.21450
C4824       C  0.73305118  0.95003019  0.45978706    -0.09500
C4825       C  0.73486770  0.94452839  0.43858918     0.29360
C4826       C  0.73365953  0.95978011  0.42300793    -0.21450
C4827       C  0.73071547  0.98089918  0.42813427    -0.09510
C4828       C  0.72677728  0.98619132  0.44915330     0.29370
F4829       F  0.72421384  0.00647295  0.45472218    -0.20030
H4830       H  0.72673152  0.97539344  0.48114434     0.17730
H4831       H  0.73667233  0.95529052  0.40694991     0.17740
F4832       F  0.73956170  0.92459408  0.43305598    -0.20020
C4833       C  0.78050446  0.55444877  0.94038423    -0.21450
C4834       C  0.78757413  0.55538178  0.91959393    -0.09500
C4835       C  0.80850161  0.56085029  0.91546919     0.29360
C4836       C  0.82298157  0.56074557  0.93173403    -0.21450
C4837       C  0.81653215  0.55515082  0.95195832    -0.09510
C4838       C  0.79505732  0.55423938  0.95669063     0.29370
F4839       F  0.78844973  0.54942386  0.97630331    -0.20030
H4840       H  0.76428343  0.55069754  0.94386306     0.17730
H4841       H  0.83954081  0.56213953  0.92805825     0.17740
F4842       F  0.81544470  0.56318247  0.89551619    -0.20020
C4843       C  0.72044459  0.46769938  0.92367525    -0.21450
C4844       C  0.73444155  0.48446969  0.92622753    -0.09500
C4845       C  0.74713035  0.48542817  0.94417814     0.29360
C4846       C  0.74710513  0.46903507  0.95847855    -0.21450
C4847       C  0.73443785  0.45148197  0.95513378    -0.09510
C4848       C  0.72045991  0.45113609  0.93811830     0.29370
F4849       F  0.70835070  0.43407553  0.93448002    -0.20030
H4850       H  0.71086235  0.46660676  0.90970220     0.17730
H4851       H  0.75799064  0.46942889  0.97153607     0.17740
F4852       F  0.76075321  0.50151699  0.94700430    -0.20020
C4853       C  0.66549719  0.52909775  0.84021254    -0.21450
C4854       C  0.68023979  0.51364631  0.84532389    -0.09500
C4855       C  0.67631757  0.49279106  0.83973768     0.29360
C4856       C  0.65964287  0.48806881  0.82643068    -0.21450
C4857       C  0.64707786  0.50413962  0.81835003    -0.09510
C4858       C  0.64892375  0.52437495  0.82662358     0.29370
F4859       F  0.63707558  0.54019526  0.81877412    -0.20030
H4860       H  0.66837127  0.54524815  0.84436316     0.17730
H4861       H  0.65856170  0.47245280  0.81999442     0.17740
F4862       F  0.69022626  0.47750822  0.84483334    -0.20020
C4863       C  0.81248990  0.54166488  0.80551975    -0.21450
C4864       C  0.81259657  0.52680217  0.82173066    -0.09500
C4865       C  0.82940948  0.51255649  0.82307259     0.29360
C4866       C  0.84445378  0.51186720  0.80725753    -0.21450
C4867       C  0.84300751  0.52526586  0.78987329    -0.09510
C4868       C  0.82758191  0.54096929  0.78973984     0.29370
F4869       F  0.82649192  0.55507041  0.77393032    -0.20030
H4870       H  0.80004605  0.55316148  0.80442245     0.17730
H4871       H  0.85634559  0.49977722  0.80791879     0.17740
F4872       F  0.83036620  0.49803506  0.83856565    -0.20020
C4873       C  0.68511279  0.41923983  0.76209663    -0.21450
C4874       C  0.68973131  0.41292876  0.74155718    -0.09500
C4875       C  0.67601837  0.41893707  0.72538389     0.29360
C4876       C  0.65940790  0.43286889  0.72947968    -0.21450
C4877       C  0.65601181  0.44070514  0.74978655    -0.09510
C4878       C  0.66846903  0.43296174  0.76622143     0.29370
F4879       F  0.66636986  0.44086654  0.78580526    -0.20030
H4880       H  0.69546701  0.41479493  0.77477903     0.17730
H4881       H  0.65054393  0.43917983  0.71643797     0.17740
F4882       F  0.68013654  0.41336411  0.70533472    -0.20020
C4883       C  0.77766989  0.40958039  0.66389315    -0.21450
C4884       C  0.75693609  0.40590580  0.67029400    -0.09500
C4885       C  0.74034486  0.41357433  0.65795460     0.29360
C4886       C  0.74454533  0.42652536  0.64067597    -0.21450
C4887       C  0.76530081  0.43217737  0.63575280    -0.09510
C4888       C  0.78186158  0.42257128  0.64675490     0.29370
F4889       F  0.80205862  0.42807357  0.64273102    -0.20030
H4890       H  0.79064913  0.40409461  0.67342230     0.17730
H4891       H  0.73154816  0.43424476  0.63289415     0.17740
F4892       F  0.72015377  0.41065481  0.66409117    -0.20020
C4893       C  0.83507489  0.42404040  0.72603191    -0.21450
C4894       C  0.82517892  0.41904313  0.74497080    -0.09500
C4895       C  0.83256922  0.42794778  0.76368761     0.29360
C4896       C  0.84828572  0.44318860  0.76310382    -0.21450
C4897       C  0.85685510  0.44949805  0.74392645    -0.09510
C4898       C  0.85099725  0.43907076  0.72552439     0.29370
F4899       F  0.85916241  0.44499223  0.70682198    -0.20030
H4900       H  0.82947073  0.41737957  0.71149282     0.17730
H4901       H  0.85220196  0.45154462  0.77731499     0.17740
F4902       F  0.82274475  0.42395006  0.78211382    -0.20020
C4903       C  0.77849173  0.42672649  0.81823131    -0.21450
C4904       C  0.76075556  0.42189107  0.80607838    -0.09500
C4905       C  0.74187389  0.43254652  0.80967440     0.29360
C4906       C  0.74124647  0.44917695  0.82367925    -0.21450
C4907       C  0.75943223  0.45539475  0.83436103    -0.09510
C4908       C  0.77786796  0.44344710  0.83239115     0.29370
F4909       F  0.79580822  0.44940501  0.84221338    -0.20030
H4910       H  0.79327939  0.41887531  0.81536072     0.17730
H4911       H  0.72692551  0.45822094  0.82501699     0.17740
F4912       F  0.72452433  0.42805963  0.79821807    -0.20020
C4913       C  0.78539447  0.30293591  0.71804929    -0.21450
C4914       C  0.79421997  0.32309619  0.71870912    -0.09500
C4915       C  0.81608888  0.32520851  0.71637104     0.29360
C4916       C  0.82894334  0.30752388  0.71549230    -0.21450
C4917       C  0.82034137  0.28738703  0.71697257    -0.09510
C4918       C  0.79837461  0.28515018  0.71737889     0.29370
F4919       F  0.78963226  0.26592893  0.71953561    -0.20030
H4920       H  0.76863708  0.30088815  0.72013858     0.17730
H4921       H  0.84584310  0.30958462  0.71551259     0.17740
F4922       F  0.82518987  0.34439061  0.71663657    -0.20020
C4923       C  0.72501878  0.33355260  0.80116114    -0.21450
C4924       C  0.72782963  0.32851288  0.78005220    -0.09500
C4925       C  0.72651056  0.30756946  0.77365989     0.29360
C4926       C  0.72480790  0.29169228  0.78867067    -0.21450
C4927       C  0.72462437  0.29672383  0.81002826    -0.09510
C4928       C  0.72330350  0.31776977  0.81609984     0.29370
F4929       F  0.72272810  0.32301173  0.83666850    -0.20030
H4930       H  0.72613308  0.34964671  0.80627166     0.17730
H4931       H  0.72613430  0.27555617  0.78376265     0.17740
F4932       F  0.72973618  0.30236734  0.75333582    -0.20020
C4933       C  0.77456553  0.60942323  0.82479012    -0.21450
C4934       C  0.75913906  0.62227739  0.81585701    -0.09500
C4935       C  0.73823383  0.62045466  0.82291496     0.29360
C4936       C  0.73235931  0.60379436  0.83586546    -0.21450
C4937       C  0.74738799  0.58920358  0.84229376    -0.09510
C4938       C  0.76871471  0.59280994  0.83780958     0.29370
F4939       F  0.78354063  0.57878505  0.84387546    -0.20030
H4940       H  0.79063964  0.61025422  0.81928838     0.17730
H4941       H  0.71588267  0.60118658  0.83917450     0.17740
F4942       F  0.72300068  0.63275741  0.81455017    -0.20020
C4943       C  0.84340624  0.61238998  0.73860298    -0.21450
C4944       C  0.82241264  0.60654119  0.74267069    -0.09500
C4945       C  0.81624181  0.58595930  0.73795168     0.29360
C4946       C  0.83033080  0.57180311  0.72961605    -0.21450
C4947       C  0.85144537  0.57703709  0.72608718    -0.09510
C4948       C  0.85798660  0.59761559  0.73067775     0.29370
F4949       F  0.87821271  0.60344371  0.72746815    -0.20030
H4950       H  0.84860867  0.62812055  0.74201871     0.17730
H4951       H  0.82453161  0.55618927  0.72657506     0.17740
F4952       F  0.79636756  0.57911472  0.74148240    -0.20020
C4953       C  0.68009249  0.60491824  0.72894283    -0.21450
C4954       C  0.69391468  0.60758778  0.74581021    -0.09500
C4955       C  0.69160784  0.59494946  0.76366153     0.29360
C4956       C  0.67730724  0.57845211  0.76370259    -0.21450
C4957       C  0.66513048  0.57409950  0.74587560    -0.09510
C4958       C  0.66569316  0.58830948  0.72893568     0.29370
F4959       F  0.65382797  0.58511805  0.71158153    -0.20030
H4960       H  0.68184854  0.61434878  0.71495897     0.17730
H4961       H  0.67691526  0.56817195  0.77718706     0.17740
F4962       F  0.70472965  0.59727058  0.78027389    -0.20020
C4963       C  0.75488801  0.55755872  0.68124496    -0.21450
C4964       C  0.75505679  0.56185974  0.65966122    -0.09500
C4965       C  0.75584906  0.58288060  0.65301911     0.29360
C4966       C  0.75682845  0.59907283  0.66790582    -0.21450
C4967       C  0.75736861  0.59433812  0.68940004    -0.09510
C4968       C  0.75604242  0.57342342  0.69584339     0.29370
F4969       F  0.75515310  0.56823919  0.71645806    -0.20030
H4970       H  0.75376062  0.54170269  0.68709820     0.17730
H4971       H  0.75750808  0.61516954  0.66270053     0.17740
F4972       F  0.75595830  0.58775333  0.63235182    -0.20020
C4973       C  0.70721335  0.69926719  0.77345290    -0.21450
C4974       C  0.72850424  0.70293523  0.76935313    -0.09500
C4975       C  0.73605189  0.72359406  0.76938666     0.29360
C4976       C  0.72194600  0.74038750  0.77131750    -0.21450
C4977       C  0.70027189  0.73663383  0.77319978    -0.09510
C4978       C  0.69322232  0.71591832  0.77552319     0.29370
F4979       F  0.67239981  0.71175933  0.77750934    -0.20030
H4980       H  0.70113464  0.68345186  0.77342928     0.17730
H4981       H  0.72766275  0.75617384  0.76906787     0.17740
F4982       F  0.75654909  0.72755672  0.76511714    -0.20020
C4983       C  0.78378396  0.69377362  0.67993577    -0.21450
C4984       C  0.78774875  0.69597277  0.70143091    -0.09500
C4985       C  0.79576326  0.71521620  0.70874871     0.29360
C4986       C  0.79715556  0.73250327  0.69518188    -0.21450
C4987       C  0.79084290  0.73066392  0.67423838    -0.09510
C4988       C  0.78524376  0.71088869  0.66650696     0.29370
F4989       F  0.77914311  0.70858168  0.64627892    -0.20030
H4990       H  0.77794286  0.67914165  0.67373149     0.17730
H4991       H  0.80127587  0.74766066  0.70146583     0.17740
F4992       F  0.80014150  0.71798574  0.72933924    -0.20020
loop_ 
_geom_bond_atom_site_label_1 
_geom_bond_atom_site_label_2 
_geom_bond_distance 
_geom_bond_site_symmetry_2 
_ccdc_geom_bond_type 
Fe1          O17   2.037       .  S
Fe1           O7   2.054       .  S
Fe1          O14   2.043       .  S
Fe1           O6   2.012       .  S
Fe1          O12   1.921       .  S
Fe2           O5   2.061       .  S
Fe2           O9   2.111       .  S
Fe2          O13   2.085       .  S
Fe2          O18   2.079       .  S
Fe2          O12   1.930       .  S
Fe3          O21   2.087       .  S
Fe3           O8   2.081       .  S
Fe3          O15   2.119       .  S
Fe3           O4   2.142       .  S
Fe3          O12   1.956       .  S
O4           C11   1.286       .  A
O5           C19   1.272       .  A
O6           C11   1.264       .  A
O7           C10   1.257       .  A
O8           C20   1.277       .  A
O9           C22   1.281       .  A
C10          O15   1.269       .  A
C10        C4944   1.494       .  S
C11        C4934   1.469       .  S
O13          C16   1.268       .  A
O14          C16   1.261       .  A
C16        C4954   1.470       .  S
O17          C22   1.272       .  A
O18          C20   1.278       .  A
C19          O21   1.273       .  A
C19        C4984   1.487       .  S
C20        C4974   1.475       .  S
C22        C4967   1.472       .  S
Fe23         O39   2.059       .  S
Fe23         O29   2.062       .  S
Fe23         O36   2.063       .  S
Fe23         O28   2.052       .  S
Fe23         O34   1.954       .  S
Fe24         O27   2.059       .  S
Fe24         O31   2.075       .  S
Fe24         O35   2.068       .  S
Fe24         O40   2.055       .  S
Fe24         O34   1.969       .  S
Fe25         O43   2.106       .  S
Fe25         O30   2.063       .  S
Fe25         O37   2.082       .  S
Fe25         O26   2.117       .  S
Fe25         O34   1.985       .  S
O26          C33   1.278       .  A
O27          C41   1.272       .  A
O28          C33   1.268       .  A
O29          C32   1.267       .  A
O30          C42   1.267       .  A
O31          C44   1.268       .  A
C32          O37   1.269       .  A
C32        C4884   1.475       .  S
C33        C4874   1.487       .  S
O35          C38   1.268       .  A
O36          C38   1.268       .  A
C38        C4904   1.469       .  S
O39          C44   1.267       .  A
O40          C42   1.268       .  A
C41          O43   1.278       .  A
C41        C4914   1.485       .  S
C42        C4924   1.463       .  S
C44        C4894   1.469       .  S
Fe45         O61   2.070       .  S
Fe45         O51   2.037       .  S
Fe45         O58   2.050       .  S
Fe45         O50   2.077       .  S
Fe45         O56   1.931       .  S
Fe46         O49   2.068       .  S
Fe46         O53   2.069       .  S
Fe46         O57   2.065       .  S
Fe46         O62   2.047       .  S
Fe46         O56   1.941       .  S
Fe47         O65   2.070       .  S
Fe47         O52   2.062       .  S
Fe47         O59   2.082       .  S
Fe47         O48   2.064       .  S
Fe47         O56   1.965       .  S
O48          C55   1.268       .  A
O49          C63   1.272       .  A
O50          C55   1.273       .  A
O51          C54   1.263       .  A
O52          C64   1.267       .  A
O53          C66   1.272       .  A
C54          O59   1.268       .  A
C54        C4854   1.465       .  S
C55        C4937   1.468       .  S
O57          C60   1.267       .  A
O58          C60   1.265       .  A
C60        C4864   1.476       .  S
O61          C66   1.273       .  A
O62          C64   1.267       .  A
C63          O65   1.272       .  A
C63        C4844   1.466       .  S
C64        C4834   1.462       .  S
C66        C4907   1.471       .  S
Fe67         O83   2.048       .  S
Fe67         O73   2.061       .  S
Fe67         O80   2.059       .  S
Fe67         O72   2.021       .  S
Fe67         O78   1.937       .  S
Fe68         O71   2.033       .  S
Fe68         O75   2.078       .  S
Fe68         O79   2.060       .  S
Fe68         O84   2.063       .  S
Fe68         O78   1.930       .  S
Fe69         O87   2.081       .  S
Fe69         O74   2.092       .  S
Fe69         O81   2.101       .  S
Fe69         O70   2.126       .  S
Fe69         O78   1.952       .  S
O70          C77   1.283       .  A
O71          C85   1.266       .  A
O72          C77   1.266       .  A
O73          C76   1.260       .  A
O74          C86   1.277       .  A
O75          C88   1.274       .  A
C76          O81   1.269       .  A
C76        C4774   1.479       .  S
C77        C4784   1.468       .  S
O79          C82   1.265       .  A
O80          C82   1.267       .  A
C82        C4804   1.472       .  S
O83          C88   1.271       .  A
O84          C86   1.272       .  A
C85          O87   1.272       .  A
C85        C4817   1.465       .  S
C86        C4824   1.481       .  S
C88        C4794   1.476       .  S
Fe89        O105   2.044       .  S
Fe89         O95   2.043       .  S
Fe89        O102   2.049       .  S
Fe89         O94   2.019       .  S
Fe89        O100   1.950       .  S
Fe90         O93   2.039       .  S
Fe90         O97   2.082       .  S
Fe90        O101   2.059       .  S
Fe90        O106   2.052       .  S
Fe90        O100   1.959       .  S
Fe91        O109   2.090       .  S
Fe91         O96   2.083       .  S
Fe91        O103   2.095       .  S
Fe91         O92   2.106       .  S
Fe91        O100   1.978       .  S
O92          C99   1.276       .  A
O93         C107   1.269       .  A
O94          C99   1.263       .  A
O95          C98   1.262       .  A
O96         C108   1.271       .  A
O97         C110   1.270       .  A
C98         O103   1.271       .  A
C98        C4734   1.473       .  S
C99        C4724   1.463       .  S
O101        C104   1.265       .  A
O102        C104   1.266       .  A
C104       C4744   1.466       .  S
O105        C110   1.265       .  A
O106        C108   1.267       .  A
C107        O109   1.275       .  A
C107       C4927   1.467       .  S
C108       C4764   1.471       .  S
C110       C4754   1.477       .  S
Fe111       O127   2.061       .  S
Fe111       O117   2.065       .  S
Fe111       O124   2.054       .  S
Fe111       O116   2.035       .  S
Fe111       O122   1.941       .  S
Fe112       O115   2.047       .  S
Fe112       O119   2.084       .  S
Fe112       O123   2.059       .  S
Fe112       O128   2.071       .  S
Fe112       O122   1.949       .  S
Fe113       O131   2.082       .  S
Fe113       O118   2.067       .  S
Fe113       O125   2.062       .  S
Fe113       O114   2.111       .  S
Fe113       O122   1.968       .  S
O114        C121   1.275       .  A
O115        C129   1.269       .  A
O116        C121   1.263       .  A
O117        C120   1.269       .  A
O118        C130   1.270       .  A
O119        C132   1.270       .  A
C120        O125   1.266       .  A
C120       C4684   1.463       .  S
C121       C4694   1.476       .  S
O123        C126   1.269       .  A
O124        C126   1.270       .  A
C126       C4714   1.462       .  S
O127        C132   1.267       .  A
O128        C130   1.271       .  A
C129        O131   1.272       .  A
C129       C4674   1.471       .  S
C130       C4667   1.467       .  S
C132       C4704   1.492       .  S
Fe133       O149   2.063   1_545  S
Fe133       O139   2.065   1_545  S
Fe133       O146   2.063       .  S
Fe133       O138   2.022       .  S
Fe133       O144   1.933       .  S
Fe134       O137   2.045       .  S
Fe134       O141   2.066       .  S
Fe134       O145   2.068       .  S
Fe134       O150   2.060       .  S
Fe134       O144   1.922       .  S
Fe135       O153   2.099       .  S
Fe135       O140   2.058   1_565  S
Fe135       O147   2.070       .  S
Fe135       O136   2.122       .  S
Fe135       O144   1.953   1_565  S
O136        C143   1.281   1_565  A
O137        C151   1.267   1_545  A
O138        C143   1.264       .  A
O139        C142   1.265       .  A
O140        C152   1.269       .  A
O141        C154   1.271       .  A
C142        O147   1.265       .  A
C142       C4687   1.463       .  S
C143       C4644   1.473       .  S
O145        C148   1.270       .  A
O146        C148   1.269       .  A
C148       C4634   1.473       .  S
O149        C154   1.272   1_565  A
O150        C152   1.270       .  A
C151        O153   1.274       .  A
C151       C4627   1.465       .  S
C152       C4614   1.454       .  S
C154       C4657   1.479   1_545  S
Fe155       O171   2.052       .  S
Fe155       O161   2.063       .  S
Fe155       O168   2.060       .  S
Fe155       O160   2.025       .  S
Fe155       O166   1.944       .  S
Fe156       O159   2.058       .  S
Fe156       O163   2.079       .  S
Fe156       O167   2.072       .  S
Fe156       O172   2.067       .  S
Fe156       O166   1.947       .  S
Fe157       O175   2.098       .  S
Fe157       O162   2.084       .  S
Fe157       O169   2.085       .  S
Fe157       O158   2.125       .  S
Fe157       O166   1.961       .  S
O158        C165   1.279       .  A
O159        C173   1.272       .  A
O160        C165   1.262       .  A
O161        C164   1.267       .  A
O162        C174   1.273       .  A
O163        C176   1.269       .  A
C164        O169   1.271       .  A
C164       C4584   1.474       .  S
C165       C4594   1.477       .  S
O167        C170   1.273       .  A
O168        C170   1.270       .  A
C170       C4604   1.472       .  S
O171        C176   1.265       .  A
O172        C174   1.271       .  A
C173        O175   1.277       .  A
C173       C4564   1.481       .  S
C174       C4574   1.478       .  S
C176       C4637   1.485       .  S
Fe177       O193   2.049       .  S
Fe177       O183   2.051       .  S
Fe177       O190   2.052       .  S
Fe177       O182   2.031       .  S
Fe177       O188   1.940       .  S
Fe178       O181   2.047       .  S
Fe178       O185   2.084       .  S
Fe178       O189   2.064       .  S
Fe178       O194   2.062       .  S
Fe178       O188   1.951       .  S
Fe179       O197   2.093       .  S
Fe179       O184   2.078       .  S
Fe179       O191   2.086       .  S
Fe179       O180   2.116       .  S
Fe179       O188   1.964       .  S
O180        C187   1.278       .  A
O181        C195   1.270       .  A
O182        C187   1.264       .  A
O183        C186   1.265       .  A
O184        C196   1.272       .  A
O185        C198   1.270       .  A
C186        O191   1.270       .  A
C186       C4547   1.468       .  S
C187       C4534   1.472       .  S
O189        C192   1.267       .  A
O190        C192   1.267       .  A
C192       C4514   1.464       .  S
O193        C198   1.267       .  A
O194        C196   1.269       .  A
C195        O197   1.275       .  A
C195       C4524   1.473       .  S
C196       C4567   1.468       .  S
C198       C4557   1.480       .  S
Fe199       O215   2.054   1_556  S
Fe199       O205   2.054       .  S
Fe199       O212   2.052       .  S
Fe199       O204   2.037       .  S
Fe199       O210   1.947       .  S
Fe200       O203   2.053       .  S
Fe200       O207   2.071       .  S
Fe200       O211   2.068   1_554  S
Fe200       O216   2.053   1_554  S
Fe200       O210   1.958   1_554  S
Fe201       O219   2.066       .  S
Fe201       O206   2.061       .  S
Fe201       O213   2.077       .  S
Fe201       O202   2.092       .  S
Fe201       O210   1.979       .  S
O202        C209   1.273       .  A
O203        C217   1.269       .  A
O204        C209   1.266       .  A
O205        C208   1.265       .  A
O206        C218   1.267       .  A
O207        C220   1.270       .  A
C208        O213   1.266       .  A
C208       C4497   1.469       .  S
C209       C4727   1.468       .  S
O211        C214   1.267       .  A
O212        C214   1.265       .  A
C214       C4504   1.474       .  S
O215        C220   1.270       .  A
O216        C218   1.268       .  A
C217        O219   1.269   1_554  A
C217       C4617   1.456       .  S
C218       C4487   1.462       .  S
C220       C4517   1.480       .  S
Fe221       O237   2.049   1_545  S
Fe221       O227   2.044       .  S
Fe221       O234   2.048       .  S
Fe221       O226   2.040       .  S
Fe221       O232   1.969       .  S
Fe222       O225   2.049   1_545  S
Fe222       O229   2.058   1_545  S
Fe222       O233   2.067       .  S
Fe222       O238   2.039       .  S
Fe222       O232   1.978       .  S
Fe223       O241   2.099       .  S
Fe223       O228   2.094       .  S
Fe223       O235   2.117       .  S
Fe223       O224   2.107       .  S
Fe223       O232   1.995       .  S
O224        C231   1.275       .  A
O225        C239   1.268       .  A
O226        C231   1.264       .  A
O227        C230   1.263       .  A
O228        C240   1.273       .  A
O229        C242   1.266       .  A
C230        O235   1.276       .  A
C230       C4457   1.486       .  S
C231       C4597   1.476       .  S
O233        C236   1.265       .  A
O234        C236   1.264       .  A
C236       C4464   1.475       .  S
O237        C242   1.268       .  A
O238        C240   1.266       .  A
C239        O241   1.275   1_565  A
C239       C4827   1.484       .  S
C240       C4474   1.473       .  S
C242       C4717   1.467       .  S
Fe243       O259   2.054   1_556  S
Fe243       O249   2.071   1_556  S
Fe243       O256   2.054       .  S
Fe243       O248   2.036       .  S
Fe243       O254   1.934       .  S
Fe244       O247   2.054       .  S
Fe244       O251   2.081       .  S
Fe244       O255   2.070       .  S
Fe244       O260   2.072       .  S
Fe244       O254   1.946       .  S
Fe245       O263   2.085       .  S
Fe245       O250   2.065   1_554  S
Fe245       O257   2.074       .  S
Fe245       O246   2.108       .  S
Fe245       O254   1.958   1_554  S
O246        C253   1.275   1_554  A
O247        C261   1.270   1_556  A
O248        C253   1.264       .  A
O249        C252   1.269       .  A
O250        C262   1.270       .  A
O251        C264   1.271       .  A
C252        O257   1.269       .  A
C252       C4544   1.470       .  S
C253       C4424   1.474       .  S
O255        C258   1.270       .  A
O256        C258   1.268       .  A
C258       C4757   1.466       .  S
O259        C264   1.270   1_554  A
O260        C262   1.273       .  A
C261        O263   1.273       .  A
C261       C4444   1.480       .  S
C262       C4847   1.463       .  S
C264       C4434   1.485       .  S
Fe265       O281   2.050       .  S
Fe265       O271   2.056       .  S
Fe265       O278   2.048       .  S
Fe265       O270   2.042       .  S
Fe265       O276   1.946       .  S
Fe266       O269   2.057       .  S
Fe266       O273   2.077       .  S
Fe266       O277   2.066       .  S
Fe266       O282   2.061       .  S
Fe266       O276   1.960       .  S
Fe267       O285   2.095       .  S
Fe267       O272   2.091       .  S
Fe267       O279   2.112       .  S
Fe267       O268   2.116       .  S
Fe267       O276   1.967       .  S
O268        C275   1.277       .  A
O269        C283   1.269       .  A
O270        C275   1.265       .  A
O271        C274   1.266       .  A
O272        C284   1.275       .  A
O273        C286   1.269       .  A
C274        O279   1.277       .  A
C274       C4374   1.485       .  S
C275       C4364   1.482       .  S
O277        C280   1.268       .  A
O278        C280   1.266       .  A
C280       C4384   1.465       .  S
O281        C286   1.267       .  A
O282        C284   1.269       .  A
C283        O285   1.275       .  A
C283       C4417   1.470       .  S
C284       C4404   1.476       .  S
C286       C4394   1.476       .  S
Fe287       O303   2.054       .  S
Fe287       O293   2.052       .  S
Fe287       O300   2.041       .  S
Fe287       O292   2.032       .  S
Fe287       O298   1.929       .  S
Fe288       O291   2.045       .  S
Fe288       O295   2.075       .  S
Fe288       O299   2.082       .  S
Fe288       O304   2.063       .  S
Fe288       O298   1.934       .  S
Fe289       O307   2.092       .  S
Fe289       O294   2.083       .  S
Fe289       O301   2.103       .  S
Fe289       O290   2.119       .  S
Fe289       O298   1.948       .  S
O290        C297   1.281       .  A
O291        C305   1.268       .  A
O292        C297   1.269       .  A
O293        C296   1.259       .  A
O294        C306   1.275       .  A
O295        C308   1.276       .  A
C296        O301   1.271       .  A
C296       C4887   1.475       .  S
C297       C4344   1.467       .  S
O299        C302   1.267       .  A
O300        C302   1.262       .  A
C302       C4964   1.484       .  S
O303        C308   1.274       .  A
O304        C306   1.272       .  A
C305        O307   1.274       .  A
C305       C4334   1.478       .  S
C306       C4414   1.468       .  S
C308       C4354   1.476       .  S
Fe309       O325   2.060       .  S
Fe309       O315   2.069       .  S
Fe309       O322   2.057       .  S
Fe309       O314   2.038       .  S
Fe309       O320   1.941       .  S
Fe310       O313   2.046       .  S
Fe310       O317   2.062       .  S
Fe310       O321   2.060       .  S
Fe310       O326   2.058       .  S
Fe310       O320   1.948       .  S
Fe311       O329   2.109       .  S
Fe311       O316   2.090       .  S
Fe311       O323   2.096       .  S
Fe311       O312   2.126       .  S
Fe311       O320   1.961       .  S
O312        C319   1.278       .  A
O313        C327   1.267       .  A
O314        C319   1.262       .  A
O315        C318   1.270       .  A
O316        C328   1.276       .  A
O317        C330   1.267       .  A
C318        O323   1.276       .  A
C318       C4777   1.479       .  S
C319       C4304   1.485       .  S
O321        C324   1.268       .  A
O322        C324   1.270       .  A
C324       C4397   1.464       .  S
O325        C330   1.268       .  A
O326        C328   1.269       .  A
C327        O329   1.276       .  A
C327       C4324   1.483       .  S
C328       C4987   1.474       .  S
C330       C4314   1.483       .  S
Fe331       O347   2.035       .  S
Fe331       O337   2.071       .  S
Fe331       O344   2.053       .  S
Fe331       O336   2.018       .  S
Fe331       O342   1.929       .  S
Fe332       O335   2.041       .  S
Fe332       O339   2.099       .  S
Fe332       O343   2.056       .  S
Fe332       O348   2.076       .  S
Fe332       O342   1.937       .  S
Fe333       O351   2.105       .  S
Fe333       O338   2.077       .  S
Fe333       O345   2.078       .  S
Fe333       O334   2.148       .  S
Fe333       O342   1.948       .  S
O334        C341   1.286       .  A
O335        C349   1.268       .  A
O336        C341   1.261       .  A
O337        C340   1.265       .  A
O338        C350   1.275       .  A
O339        C352   1.275       .  A
C340        O345   1.267       .  A
C340       C4274   1.473       .  S
C341       C4367   1.478       .  S
O343        C346   1.266       .  A
O344        C346   1.267       .  A
C346       C4284   1.458       .  S
O347        C352   1.265       .  A
O348        C350   1.275       .  A
C349        O351   1.278       .  A
C349       C4664   1.480       .  S
C350       C4294   1.476       .  S
C352       C4807   1.482       .  S
Fe353       O369   2.061       .  S
Fe353       O359   2.046       .  S
Fe353       O366   2.056       .  S
Fe353       O358   2.035       .  S
Fe353       O364   1.954       .  S
Fe354       O357   2.056       .  S
Fe354       O361   2.065       .  S
Fe354       O365   2.072       .  S
Fe354       O370   2.052       .  S
Fe354       O364   1.956       .  S
Fe355       O373   2.068       .  S
Fe355       O360   2.076       .  S
Fe355       O367   2.085       .  S
Fe355       O356   2.090       .  S
Fe355       O364   1.983       .  S
O356        C363   1.273       .  A
O357        C371   1.271       .  A
O358        C363   1.267       .  A
O359        C362   1.263       .  A
O360        C372   1.270       .  A
O361        C374   1.269       .  A
C362        O367   1.268       .  A
C362       C4224   1.469       .  S
C363       C4217   1.462       .  S
O365        C368   1.269       .  A
O366        C368   1.266       .  A
C368       C4234   1.480       .  S
O369        C374   1.269       .  A
O370        C372   1.268       .  A
C371        O373   1.270       .  A
C371       C4264   1.469       .  S
C372       C4254   1.471       .  S
C374       C4244   1.470       .  S
Fe375       O391   2.052       .  S
Fe375       O381   2.054       .  S
Fe375       O388   2.045       .  S
Fe375       O380   2.028       .  S
Fe375       O386   1.937       .  S
Fe376       O379   2.061       .  S
Fe376       O383   2.081       .  S
Fe376       O387   2.076       .  S
Fe376       O392   2.047       .  S
Fe376       O386   1.937       .  S
Fe377       O395   2.095       .  S
Fe377       O382   2.071       .  S
Fe377       O389   2.091       .  S
Fe377       O378   2.119       .  S
Fe377       O386   1.955       .  S
O378        C385   1.280       .  A
O379        C393   1.273       .  A
O380        C385   1.266       .  A
O381        C384   1.262       .  A
O382        C394   1.270       .  A
O383        C396   1.274       .  A
C384        O389   1.270       .  A
C384       C4277   1.471       .  S
C385       C4787   1.472       .  S
O387        C390   1.267       .  A
O388        C390   1.262       .  A
C390       C4317   1.470       .  S
O391        C396   1.272       .  A
O392        C394   1.268       .  A
C393        O395   1.276       .  A
C393       C4204   1.482       .  S
C394       C4267   1.461       .  S
C396       C4387   1.480       .  S
Fe397       O413   2.055       .  S
Fe397       O403   2.051       .  S
Fe397       O410   2.040       .  S
Fe397       O402   2.024       .  S
Fe397       O408   1.924       .  S
Fe398       O401   2.059       .  S
Fe398       O405   2.102       .  S
Fe398       O409   2.083       .  S
Fe398       O414   2.073       .  S
Fe398       O408   1.923       .  S
Fe399       O417   2.080       .  S
Fe399       O404   2.080       .  S
Fe399       O411   2.108       .  S
Fe399       O400   2.135       .  S
Fe399       O408   1.957       .  S
O400        C407   1.285       .  A
O401        C415   1.271       .  A
O402        C407   1.266       .  A
O403        C406   1.258       .  A
O404        C416   1.277       .  A
O405        C418   1.281       .  A
C406        O411   1.267       .  A
C406       C4154   1.484       .  S
C407       C4164   1.468       .  S
O409        C412   1.267       .  A
O410        C412   1.260       .  A
C412       C4174   1.469       .  S
O413        C418   1.276       .  A
O414        C416   1.277       .  A
C415        O417   1.272       .  A
C415       C4184   1.482       .  S
C416       C4194   1.473       .  S
C418       C4237   1.489       .  S
Fe419       O435   2.051       .  S
Fe419       O425   2.033       .  S
Fe419       O432   2.052       .  S
Fe419       O424   2.033       .  S
Fe419       O430   1.939       .  S
Fe420       O423   2.037       .  S
Fe420       O427   2.092       .  S
Fe420       O431   2.060       .  S
Fe420       O436   2.052       .  S
Fe420       O430   1.948       .  S
Fe421       O439   2.122       .  S
Fe421       O426   2.070       .  S
Fe421       O433   2.072       .  S
Fe421       O422   2.138       .  S
Fe421       O430   1.964       .  S
O422        C429   1.287       .  A
O423        C437   1.272       .  A
O424        C429   1.267       .  A
O425        C428   1.261       .  A
O426        C438   1.266       .  A
O427        C440   1.271       .  A
C428        O433   1.264       .  A
C428       C4857   1.459       .  S
C429       C4877   1.480       .  S
O431        C434   1.267       .  A
O432        C434   1.267       .  A
C434       C4357   1.464       .  S
O435        C440   1.266       .  A
O436        C438   1.264       .  A
C437        O439   1.285       .  A
C437       C4197   1.478       .  S
C438       C4144   1.466       .  S
C440       C4957   1.487       .  S
Fe441       O457   2.055       .  S
Fe441       O447   2.051       .  S
Fe441       O454   2.054       .  S
Fe441       O446   2.031       .  S
Fe441       O452   1.955       .  S
Fe442       O445   2.036       .  S
Fe442       O449   2.078       .  S
Fe442       O453   2.055       .  S
Fe442       O458   2.054       .  S
Fe442       O452   1.955       .  S
Fe443       O461   2.111       .  S
Fe443       O448   2.084       .  S
Fe443       O455   2.100       .  S
Fe443       O444   2.131       .  S
Fe443       O452   1.975       .  S
O444        C451   1.283       .  A
O445        C459   1.267       .  A
O446        C451   1.266       .  A
O447        C450   1.262       .  A
O448        C460   1.271       .  A
O449        C462   1.272       .  A
C450        O455   1.271       .  A
C450       C4124   1.479       .  S
C451       C4134   1.479       .  S
O453        C456   1.263       .  A
O454        C456   1.263       .  A
C456       C4247   1.458       .  S
O457        C462   1.270       .  A
O458        C460   1.268       .  A
C459        O461   1.278       .  A
C459       C4977   1.478       .  S
C460       C4327   1.472       .  S
C462       C4177   1.482       .  S
Fe463       O479   2.054       .  S
Fe463       O469   2.038       .  S
Fe463       O476   2.038       .  S
Fe463       O468   2.021       .  S
Fe463       O474   1.920       .  S
Fe464       O467   2.068       .  S
Fe464       O471   2.094       .  S
Fe464       O475   2.095       .  S
Fe464       O480   2.054       .  S
Fe464       O474   1.917       .  S
Fe465       O483   2.086       .  S
Fe465       O470   2.070       .  S
Fe465       O477   2.127       .  S
Fe465       O466   2.134       .  S
Fe465       O474   1.955       .  S
O466        C473   1.288       .  A
O467        C481   1.273       .  A
O468        C473   1.271       .  A
O469        C472   1.248       .  A
O470        C482   1.274       .  A
O471        C484   1.282       .  A
C472        O477   1.266       .  A
C472       C4157   1.487       .  S
C473       C4214   1.466       .  S
O475        C478   1.266       .  A
O476        C478   1.257       .  A
C478       C4084   1.475       .  S
O479        C484   1.279       .  A
O480        C482   1.274       .  A
C481        O483   1.273       .  A
C481       C4104   1.487       .  S
C482       C4114   1.463       .  S
C484       C4094   1.480       .  S
Fe485       O501   2.057       .  S
Fe485       O491   2.049       .  S
Fe485       O498   2.045       .  S
Fe485       O490   2.040       .  S
Fe485       O496   1.955       .  S
Fe486       O489   2.046       .  S
Fe486       O493   2.061       .  S
Fe486       O497   2.064       .  S
Fe486       O502   2.045       .  S
Fe486       O496   1.963       .  S
Fe487       O505   2.072       .  S
Fe487       O492   2.097       .  S
Fe487       O499   2.105       .  S
Fe487       O488   2.089       .  S
Fe487       O496   1.981       .  S
O488        C495   1.271       .  A
O489        C503   1.268       .  A
O490        C495   1.265       .  A
O491        C494   1.264       .  A
O492        C504   1.275       .  A
O493        C506   1.267       .  A
C494        O499   1.275       .  A
C494       C4127   1.479       .  S
C495       C4167   1.468       .  S
O497        C500   1.266       .  A
O498        C500   1.264       .  A
C500       C4097   1.472       .  S
O501        C506   1.269       .  A
O502        C504   1.266       .  A
C503        O505   1.269       .  A
C503       C4054   1.469       .  S
C504       C4064   1.477       .  S
C506       C4074   1.477       .  S
Fe507       O523   2.042       .  S
Fe507       O513   2.030       .  S
Fe507       O520   2.043       .  S
Fe507       O512   2.029       .  S
Fe507       O518   1.965       .  S
Fe508       O511   2.036       .  S
Fe508       O515   2.058       .  S
Fe508       O519   2.056       .  S
Fe508       O524   2.026       .  S
Fe508       O518   1.973       .  S
Fe509       O527   2.118       .  S
Fe509       O514   2.102       .  S
Fe509       O521   2.118       .  S
Fe509       O510   2.130       .  S
Fe509       O518   1.989       .  S
O510        C517   1.283       .  A
O511        C525   1.268       .  A
O512        C517   1.265       .  A
O513        C516   1.258       .  A
O514        C526   1.273       .  A
O515        C528   1.265       .  A
C516        O521   1.275       .  A
C516       C4377   1.483       .  S
C517       C4307   1.480       .  S
O519        C522   1.264       .  A
O520        C522   1.264       .  A
C522       C4797   1.469       .  S
O523        C528   1.265       .  A
O524        C526   1.261       .  A
C525        O527   1.282       .  A
C525       C4044   1.483       .  S
C526       C4034   1.477       .  S
C528       C4287   1.471       .  S
Fe529       O545   2.056       .  S
Fe529       O535   2.036       .  S
Fe529       O542   2.050       .  S
Fe529       O534   2.057       .  S
Fe529       O540   1.959       .  S
Fe530       O533   2.052       .  S
Fe530       O537   2.056       .  S
Fe530       O541   2.060       .  S
Fe530       O546   2.032       .  S
Fe530       O540   1.969       .  S
Fe531       O549   2.099       .  S
Fe531       O536   2.072       .  S
Fe531       O543   2.088       .  S
Fe531       O532   2.105       .  S
Fe531       O540   1.991       .  S
O532        C539   1.277       .  A
O533        C547   1.270       .  A
O534        C539   1.268       .  A
O535        C538   1.263       .  A
O536        C548   1.266       .  A
O537        C550   1.263       .  A
C538        O543   1.268       .  A
C538       C4004   1.467       .  S
C539       C3994   1.482       .  S
O541        C544   1.267       .  A
O542        C544   1.268       .  A
C544       C4014   1.473       .  S
O545        C550   1.267       .  A
O546        C548   1.262       .  A
C547        O549   1.277       .  A
C547       C4297   1.478       .  S
C548       C4677   1.465       .  S
C550       C4024   1.473       .  S
Fe551       O567   2.049       .  S
Fe551       O557   2.065       .  S
Fe551       O564   2.063       .  S
Fe551       O556   2.036       .  S
Fe551       O562   1.930       .  S
Fe552       O555   2.034       .  S
Fe552       O559   2.064       .  S
Fe552       O563   2.053       .  S
Fe552       O568   2.061       .  S
Fe552       O562   1.940       .  S
Fe553       O571   2.118       .  S
Fe553       O558   2.094       .  S
Fe553       O565   2.105       .  S
Fe553       O554   2.137       .  S
Fe553       O562   1.952       .  S
O554        C561   1.282       .  A
O555        C569   1.265       .  A
O556        C561   1.264       .  A
O557        C560   1.269       .  A
O558        C570   1.277       .  A
O559        C572   1.268       .  A
C560        O565   1.276       .  A
C560       C3974   1.481       .  S
C561       C3944   1.486       .  S
O563        C566   1.266       .  A
O564        C566   1.270       .  A
C566       C3964   1.463       .  S
O567        C572   1.266       .  A
O568        C570   1.270       .  A
C569        O571   1.278       .  A
C569       C3984   1.480       .  S
C570       C4107   1.476       .  S
C572       C3954   1.476       .  S
Fe573       O589   2.045       .  S
Fe573       O579   2.075       .  S
Fe573       O586   2.062       .  S
Fe573       O578   2.027       .  S
Fe573       O584   1.932       .  S
Fe574       O577   2.043       .  S
Fe574       O581   2.084       .  S
Fe574       O585   2.067       .  S
Fe574       O590   2.082       .  S
Fe574       O584   1.936       .  S
Fe575       O593   2.089       .  S
Fe575       O580   2.073       .  S
Fe575       O587   2.075       .  S
Fe575       O576   2.122       .  S
Fe575       O584   1.951       .  S
O576        C583   1.280       .  A
O577        C591   1.268       .  A
O578        C583   1.263       .  A
O579        C582   1.268       .  A
O580        C592   1.274       .  A
O581        C594   1.274       .  A
C582        O587   1.267       .  A
C582       C3914   1.472       .  S
C583       C3924   1.474       .  S
O585        C588   1.269       .  A
O586        C588   1.269       .  A
C588       C3934   1.466       .  S
O589        C594   1.267       .  A
O590        C592   1.275       .  A
C591        O593   1.273       .  A
C591       C3884   1.475       .  S
C592       C3894   1.471       .  S
C594       C3904   1.479       .  S
Fe595       O611   2.066       .  S
Fe595       O601   2.032       .  S
Fe595       O608   2.051       .  S
Fe595       O600   2.073       .  S
Fe595       O606   1.934       .  S
Fe596       O599   2.058       .  S
Fe596       O603   2.062       .  S
Fe596       O607   2.068   1_556  S
Fe596       O612   2.042   1_556  S
Fe596       O606   1.944       .  S
Fe597       O615   2.080       .  S
Fe597       O602   2.118       .  S
Fe597       O609   2.136       .  S
Fe597       O598   2.090       .  S
Fe597       O606   1.960       .  S
O598        C605   1.274       .  A
O599        C613   1.271       .  A
O600        C605   1.271       .  A
O601        C604   1.262       .  A
O602        C614   1.277       .  A
O603        C616   1.267       .  A
C604        O609   1.280       .  A
C604       C3977   1.486       .  S
C605       C3864   1.478       .  S
O607        C610   1.269       .  A
O608        C610   1.268   1_556  A
C610       C3907   1.477       .  S
O611        C616   1.270       .  A
O612        C614   1.265   1_554  A
C613        O615   1.275       .  A
C613       C3854   1.465       .  S
C614       C3847   1.485   1_556  S
C616       C3874   1.470       .  S
Fe617       O633   2.047   1_655  S
Fe617       O623   2.070       .  S
Fe617       O630   2.063       .  S
Fe617       O622   2.025       .  S
Fe617       O628   1.935       .  S
Fe618       O621   2.048       .  S
Fe618       O625   2.077       .  S
Fe618       O629   2.064       .  S
Fe618       O634   2.064   1_455  S
Fe618       O628   1.935   1_455  S
Fe619       O637   2.116       .  S
Fe619       O624   2.090       .  S
Fe619       O631   2.104       .  S
Fe619       O620   2.146       .  S
Fe619       O628   1.947       .  S
O620        C627   1.284       .  A
O621        C635   1.268       .  A
O622        C627   1.263       .  A
O623        C626   1.266       .  A
O624        C636   1.278       .  A
O625        C638   1.272       .  A
C626        O631   1.275       .  A
C626       C3824   1.483       .  S
C627       C3997   1.484       .  S
O629        C632   1.267   1_455  A
O630        C632   1.269       .  A
C632       C3834   1.468       .  S
O633        C638   1.268       .  A
O634        C636   1.271       .  A
C635        O637   1.278   1_455  A
C635       C3844   1.486       .  S
C636       C3814   1.471       .  S
C638       C3804   1.478       .  S
Fe639       O655   2.057       .  S
Fe639       O645   2.043       .  S
Fe639       O652   2.045       .  S
Fe639       O644   2.030       .  S
Fe639       O650   1.959       .  S
Fe640       O643   2.049       .  S
Fe640       O647   2.071       .  S
Fe640       O651   2.063       .  S
Fe640       O656   2.047       .  S
Fe640       O650   1.963       .  S
Fe641       O659   2.082       .  S
Fe641       O646   2.068       .  S
Fe641       O653   2.079       .  S
Fe641       O642   2.100       .  S
Fe641       O650   1.989       .  S
O642        C649   1.273       .  A
O643        C657   1.269       .  A
O644        C649   1.263       .  A
O645        C648   1.264       .  A
O646        C658   1.267       .  A
O647        C660   1.269       .  A
C648        O653   1.268       .  A
C648       C3787   1.465       .  S
C649       C3774   1.469       .  S
O651        C654   1.267       .  A
O652        C654   1.265       .  A
C654       C3807   1.472       .  S
O655        C660   1.268       .  A
O656        C658   1.267       .  A
C657        O659   1.272       .  A
C657       C3764   1.475       .  S
C658       C3887   1.464       .  S
C660       C3797   1.486       .  S
Fe661       O677   2.047       .  S
Fe661       O667   2.058       .  S
Fe661       O674   2.054   1_455  S
Fe661       O666   2.028   1_455  S
Fe661       O672   1.941       .  S
Fe662       O665   2.056   1_655  S
Fe662       O669   2.099       .  S
Fe662       O673   2.069       .  S
Fe662       O678   2.081       .  S
Fe662       O672   1.949   1_655  S
Fe663       O681   2.065       .  S
Fe663       O668   2.073   1_455  S
Fe663       O675   2.073       .  S
Fe663       O664   2.105       .  S
Fe663       O672   1.967       .  S
O664        C671   1.276       .  A
O665        C679   1.272       .  A
O666        C671   1.263   1_655  A
O667        C670   1.265       .  A
O668        C680   1.272       .  A
O669        C682   1.273   1_655  A
C670        O675   1.266       .  A
C670       C3784   1.466       .  S
C671       C3737   1.467       .  S
O673        C676   1.270       .  A
O674        C676   1.268       .  A
C676       C4027   1.464       .  S
O677        C682   1.266       .  A
O678        C680   1.274       .  A
C679        O681   1.269       .  A
C679       C3757   1.462       .  S
C680       C4047   1.478       .  S
C682       C3747   1.487       .  S
Fe683       O699   2.050       .  S
Fe683       O689   2.060       .  S
Fe683       O696   2.034       .  S
Fe683       O688   2.030   1_556  S
Fe683       O694   1.931       .  S
Fe684       O687   2.060       .  S
Fe684       O691   2.099       .  S
Fe684       O695   2.081       .  S
Fe684       O700   2.054       .  S
Fe684       O694   1.943       .  S
Fe685       O703   2.099       .  S
Fe685       O690   2.096   1_556  S
Fe685       O697   2.125       .  S
Fe685       O686   2.124   1_556  S
Fe685       O694   1.957       .  S
O686        C693   1.282       .  A
O687        C701   1.273       .  A
O688        C693   1.267       .  A
O689        C692   1.262       .  A
O690        C702   1.277       .  A
O691        C704   1.276       .  A
C692        O697   1.276       .  A
C692       C3704   1.494       .  S
C693       C3927   1.472       .  S
O695        C698   1.266       .  A
O696        C698   1.258       .  A
C698       C3714   1.467       .  S
O699        C704   1.273       .  A
O700        C702   1.269   1_556  A
C701        O703   1.278       .  A
C701       C4067   1.484       .  S
C702       C3724   1.475       .  S
C704       C3967   1.486       .  S
Fe705       O721   2.053       .  S
Fe705       O711   2.038       .  S
Fe705       O718   2.054   1_455  S
Fe705       O710   2.033       .  S
Fe705       O716   1.958       .  S
Fe706       O709   2.049   1_655  S
Fe706       O713   2.076       .  S
Fe706       O717   2.055       .  S
Fe706       O722   2.041       .  S
Fe706       O716   1.965   1_655  S
Fe707       O725   2.104       .  S
Fe707       O712   2.081   1_455  S
Fe707       O719   2.095       .  S
Fe707       O708   2.116       .  S
Fe707       O716   1.983       .  S
O708        C715   1.279       .  A
O709        C723   1.272       .  A
O710        C715   1.264       .  A
O711        C714   1.262       .  A
O712        C724   1.268       .  A
O713        C726   1.266       .  A
C714        O719   1.271       .  A
C714       C3644   1.472       .  S
C715       C3677   1.476       .  S
O717        C720   1.267       .  A
O718        C720   1.269       .  A
C720       C3654   1.466       .  S
O721        C726   1.264   1_455  A
O722        C724   1.262       .  A
C723        O725   1.280       .  A
C723       C3694   1.469       .  S
C724       C3684   1.469       .  S
C726       C3664   1.475       .  S
Fe727       O743   2.054       .  S
Fe727       O733   2.051   1_556  S
Fe727       O740   2.057       .  S
Fe727       O732   2.030   1_556  S
Fe727       O738   1.936       .  S
Fe728       O731   2.050       .  S
Fe728       O735   2.074       .  S
Fe728       O739   2.072       .  S
Fe728       O744   2.049       .  S
Fe728       O738   1.936       .  S
Fe729       O747   2.102   1_554  S
Fe729       O734   2.077       .  S
Fe729       O741   2.086       .  S
Fe729       O730   2.125       .  S
Fe729       O738   1.954   1_554  S
O730        C737   1.283       .  A
O731        C745   1.271       .  A
O732        C737   1.267       .  A
O733        C736   1.263       .  A
O734        C746   1.271       .  A
O735        C748   1.272       .  A
C736        O741   1.268       .  A
C736       C4494   1.468       .  S
C737       C4537   1.475       .  S
O739        C742   1.268       .  A
O740        C742   1.265       .  A
C742       C4437   1.474       .  S
O743        C748   1.270       .  A
O744        C746   1.267   1_556  A
C745        O747   1.278       .  A
C745       C3687   1.478       .  S
C746       C3634   1.465       .  S
C748       C4747   1.479       .  S
Fe749       O765   2.047   1_556  S
Fe749       O755   2.058       .  S
Fe749       O762   2.050   1_655  S
Fe749       O754   2.027       .  S
Fe749       O760   1.942       .  S
Fe750       O753   2.071   1_455  S
Fe750       O757   2.100       .  S
Fe750       O761   2.080   1_554  S
Fe750       O766   2.081   1_554  S
Fe750       O760   1.950   1_454  S
Fe751       O769   2.086       .  S
Fe751       O756   2.054   1_655  S
Fe751       O763   2.073       .  S
Fe751       O752   2.117       .  S
Fe751       O760   1.967       .  S
O752        C759   1.278       .  A
O753        C767   1.273       .  A
O754        C759   1.264       .  A
O755        C758   1.265       .  A
O756        C768   1.268       .  A
O757        C770   1.276   1_455  A
C758        O763   1.266       .  A
C758       C3614   1.465       .  S
C759       C3604   1.473       .  S
O761        C764   1.270       .  A
O762        C764   1.265       .  A
C764       C3594   1.473       .  S
O765        C770   1.269       .  A
O766        C768   1.275       .  A
C767        O769   1.274   1_554  A
C767       C3817   1.480       .  S
C768       C3857   1.468       .  S
C770       C3627   1.488       .  S
Fe771       O787   2.056       .  S
Fe771       O777   2.062       .  S
Fe771       O784   2.058       .  S
Fe771       O776   2.036   1_556  S
Fe771       O782   1.926       .  S
Fe772       O775   2.034       .  S
Fe772       O779   2.073       .  S
Fe772       O783   2.068       .  S
Fe772       O788   2.057       .  S
Fe772       O782   1.935       .  S
Fe773       O791   2.070   1_554  S
Fe773       O778   2.071       .  S
Fe773       O785   2.073   1_554  S
Fe773       O774   2.091       .  S
Fe773       O782   1.958   1_554  S
O774        C781   1.274       .  A
O775        C789   1.267       .  A
O776        C781   1.268       .  A
O777        C780   1.266       .  A
O778        C790   1.271       .  A
O779        C792   1.271       .  A
C780        O785   1.266       .  A
C780       C3617   1.466       .  S
C781       C3584   1.462       .  S
O783        C786   1.267       .  A
O784        C786   1.268       .  A
C786       C3574   1.472       .  S
O787        C792   1.270       .  A
O788        C790   1.269   1_556  A
C789        O791   1.269       .  A
C789       C4837   1.458       .  S
C790       C4447   1.463       .  S
C792       C3564   1.478       .  S
Fe793       O809   2.053       .  S
Fe793       O799   2.043       .  S
Fe793       O806   2.054   1_455  S
Fe793       O798   2.034       .  S
Fe793       O804   1.952       .  S
Fe794       O797   2.031   1_655  S
Fe794       O801   2.084       .  S
Fe794       O805   2.055       .  S
Fe794       O810   2.056       .  S
Fe794       O804   1.964   1_655  S
Fe795       O813   2.095       .  S
Fe795       O800   2.057       .  S
Fe795       O807   2.067       .  S
Fe795       O796   2.105       .  S
Fe795       O804   1.986       .  S
O796        C803   1.277       .  A
O797        C811   1.268       .  A
O798        C803   1.266       .  A
O799        C802   1.262       .  A
O800        C812   1.263   1_455  A
O801        C814   1.269       .  A
C802        O807   1.264       .  A
C802       C3544   1.461       .  S
C803       C3607   1.470       .  S
O805        C808   1.266       .  A
O806        C808   1.267       .  A
C808       C3567   1.462       .  S
O809        C814   1.266   1_455  A
O810        C812   1.266       .  A
C811        O813   1.277       .  A
C811       C3537   1.465       .  S
C812       C3524   1.461       .  S
C814       C3554   1.481       .  S
Fe815       O831   2.053       .  S
Fe815       O821   2.057       .  S
Fe815       O828   2.062       .  S
Fe815       O820   2.046       .  S
Fe815       O826   1.942       .  S
Fe816       O819   2.042       .  S
Fe816       O823   2.069       .  S
Fe816       O827   2.053       .  S
Fe816       O832   2.047       .  S
Fe816       O826   1.954       .  S
Fe817       O835   2.112       .  S
Fe817       O822   2.075       .  S
Fe817       O829   2.084       .  S
Fe817       O818   2.128       .  S
Fe817       O826   1.969       .  S
O818        C825   1.282       .  A
O819        C833   1.268       .  A
O820        C825   1.268       .  A
O821        C824   1.266       .  A
O822        C834   1.269       .  A
O823        C836   1.266       .  A
C824        O829   1.269       .  A
C824       C3504   1.472       .  S
C825       C3494   1.487       .  S
O827        C830   1.266       .  A
O828        C830   1.268       .  A
C830       C3517   1.454       .  S
O831        C836   1.268       .  A
O832        C834   1.266       .  A
C833        O835   1.280       .  A
C833       C3897   1.472       .  S
C834       C3767   1.465       .  S
C836       C3484   1.475       .  S
Fe837       O853   2.048       .  S
Fe837       O843   2.069       .  S
Fe837       O850   2.056       .  S
Fe837       O842   2.032       .  S
Fe837       O848   1.929       .  S
Fe838       O841   2.046       .  S
Fe838       O845   2.088       .  S
Fe838       O849   2.064       .  S
Fe838       O854   2.078       .  S
Fe838       O848   1.931       .  S
Fe839       O857   2.097       .  S
Fe839       O844   2.083       .  S
Fe839       O851   2.083       .  S
Fe839       O840   2.136       .  S
Fe839       O848   1.944       .  S
O840        C847   1.282       .  A
O841        C855   1.267       .  A
O842        C847   1.263       .  A
O843        C846   1.266       .  A
O844        C856   1.277       .  A
O845        C858   1.274       .  A
C846        O851   1.269       .  A
C846       C3464   1.473       .  S
C847       C3474   1.480       .  S
O849        C852   1.268       .  A
O850        C852   1.268       .  A
C852       C3487   1.462       .  S
O853        C858   1.268       .  A
O854        C856   1.274       .  A
C855        O857   1.275       .  A
C855       C3434   1.476       .  S
C856       C3447   1.473       .  S
C858       C3454   1.483       .  S
Fe859       O875   2.055       .  S
Fe859       O865   2.034       .  S
Fe859       O872   2.052       .  S
Fe859       O864   2.047       .  S
Fe859       O870   1.963       .  S
Fe860       O863   2.044       .  S
Fe860       O867   2.053       .  S
Fe860       O871   2.058       .  S
Fe860       O876   2.029       .  S
Fe860       O870   1.969       .  S
Fe861       O879   2.092       .  S
Fe861       O866   2.089       .  S
Fe861       O873   2.110       .  S
Fe861       O862   2.095       .  S
Fe861       O870   1.997       .  S
O862        C869   1.276       .  A
O863        C877   1.269       .  A
O864        C869   1.269       .  A
O865        C868   1.259       .  A
O866        C878   1.269       .  A
O867        C880   1.265       .  A
C868        O873   1.272       .  A
C868       C3424   1.482       .  S
C869       C3417   1.470       .  S
O871        C874   1.265       .  A
O872        C874   1.265       .  A
C874       C3457   1.475       .  S
O875        C880   1.267       .  A
O876        C878   1.261       .  A
C877        O879   1.277       .  A
C877       C3397   1.472       .  S
C878       C3404   1.470       .  S
C880       C3514   1.460       .  S
Fe881       O897   2.048   1_556  S
Fe881       O887   2.053       .  S
Fe881       O894   2.051       .  S
Fe881       O886   2.041       .  S
Fe881       O892   1.934       .  S
Fe882       O885   2.055   1_556  S
Fe882       O889   2.083   1_556  S
Fe882       O893   2.073       .  S
Fe882       O898   2.059       .  S
Fe882       O892   1.957       .  S
Fe883       O901   2.103       .  S
Fe883       O888   2.080       .  S
Fe883       O895   2.101       .  S
Fe883       O884   2.134       .  S
Fe883       O892   1.972       .  S
O884        C891   1.282       .  A
O885        C899   1.269       .  A
O886        C891   1.265       .  A
O887        C890   1.269       .  A
O888        C900   1.273       .  A
O889        C902   1.271       .  A
C890        O895   1.271       .  A
C890       C3707   1.489       .  S
C891       C3947   1.485       .  S
O893        C896   1.268       .  A
O894        C896   1.266       .  A
C896       C3877   1.467       .  S
O897        C902   1.268       .  A
O898        C900   1.270       .  A
C899        O901   1.277   1_554  A
C899       C3444   1.475       .  S
C900       C3384   1.468       .  S
C902       C3937   1.475       .  S
Fe903       O919   2.053       .  S
Fe903       O909   2.051       .  S
Fe903       O916   2.050   1_556  S
Fe903       O908   2.029       .  S
Fe903       O914   1.941       .  S
Fe904       O907   2.042   1_554  S
Fe904       O911   2.084   1_554  S
Fe904       O915   2.057       .  S
Fe904       O920   2.059       .  S
Fe904       O914   1.953   1_554  S
Fe905       O923   2.103       .  S
Fe905       O910   2.068       .  S
Fe905       O917   2.070       .  S
Fe905       O906   2.117       .  S
Fe905       O914   1.972       .  S
O906        C913   1.278       .  A
O907        C921   1.269       .  A
O908        C913   1.262       .  A
O909        C912   1.266       .  A
O910        C922   1.268   1_556  A
O911        C924   1.269       .  A
C912        O917   1.267       .  A
C912       C3547   1.460       .  S
C913       C3374   1.473       .  S
O915        C918   1.267       .  A
O916        C918   1.268       .  A
C918       C3364   1.461       .  S
O919        C924   1.266       .  A
O920        C922   1.268       .  A
C921        O923   1.277       .  A
C921       C3387   1.475       .  S
C922       C3437   1.463       .  S
C924       C3597   1.487       .  S
Fe925       O941   2.047   1_655  S
Fe925       O931   2.054       .  S
Fe925       O938   2.052       .  S
Fe925       O930   2.026       .  S
Fe925       O936   1.940       .  S
Fe926       O929   2.053       .  S
Fe926       O933   2.065       .  S
Fe926       O937   2.077       .  S
Fe926       O942   2.048   1_455  S
Fe926       O936   1.950   1_455  S
Fe927       O945   2.082       .  S
Fe927       O932   2.089       .  S
Fe927       O939   2.103       .  S
Fe927       O928   2.094       .  S
Fe927       O936   1.967       .  S
O928        C935   1.272       .  A
O929        C943   1.268       .  A
O930        C935   1.263       .  A
O931        C934   1.265       .  A
O932        C944   1.276       .  A
O933        C946   1.270       .  A
C934        O939   1.276       .  A
C934       C3354   1.477       .  S
C935       C3587   1.458       .  S
O937        C940   1.268       .  A
O938        C940   1.265   1_655  A
C940       C3624   1.475   1_455  S
O941        C946   1.268       .  A
O942        C944   1.269       .  A
C943        O945   1.270   1_455  A
C943       C3407   1.472       .  S
C944       C3344   1.468       .  S
C946       C3367   1.472       .  S
Fe947       O963   2.046       .  S
Fe947       O953   2.030       .  S
Fe947       O960   2.039   1_655  S
Fe947       O952   2.036       .  S
Fe947       O958   1.958       .  S
Fe948       O951   2.071   1_455  S
Fe948       O955   2.082       .  S
Fe948       O959   2.082       .  S
Fe948       O964   2.059       .  S
Fe948       O958   1.970   1_455  S
Fe949       O967   2.075       .  S
Fe949       O954   2.065       .  S
Fe949       O961   2.085       .  S
Fe949       O950   2.091       .  S
Fe949       O958   1.991       .  S
O950        C957   1.273       .  A
O951        C965   1.275       .  A
O952        C957   1.265       .  A
O953        C956   1.261       .  A
O954        C966   1.267   1_655  A
O955        C968   1.271   1_455  A
C956        O961   1.267       .  A
C956       C4007   1.465       .  S
C957       C3734   1.465       .  S
O959        C962   1.270       .  A
O960        C962   1.264       .  A
C962       C3794   1.476       .  S
O963        C968   1.266       .  A
O964        C966   1.268       .  A
C965        O967   1.273       .  A
C965       C3347   1.480       .  S
C966       C3394   1.474       .  S
C968       C3837   1.482       .  S
Fe969       O985   2.057       .  S
Fe969       O975   2.068       .  S
Fe969       O982   2.058       .  S
Fe969       O974   2.024       .  S
Fe969       O980   1.947       .  S
Fe970       O973   2.071   1_545  S
Fe970       O977   2.093   1_545  S
Fe970       O981   2.084       .  S
Fe970       O986   2.082       .  S
Fe970       O980   1.943       .  S
Fe971       O989   2.059       .  S
Fe971       O976   2.061       .  S
Fe971       O983   2.065       .  S
Fe971       O972   2.099       .  S
Fe971       O980   1.968       .  S
O972        C979   1.274       .  A
O973        C987   1.272       .  A
O974        C979   1.265       .  A
O975        C978   1.264       .  A
O976        C988   1.271       .  A
O977        C990   1.278       .  A
C978        O983   1.264       .  A
C978       C3314   1.467       .  S
C979       C3284   1.460       .  S
O981        C984   1.271       .  A
O982        C984   1.265       .  A
C984       C3307   1.488       .  S
O985        C990   1.272   1_545  A
O986        C988   1.277       .  A
C987        O989   1.266   1_565  A
C987       C3324   1.480       .  S
C988       C3334   1.473       .  S
C990       C3294   1.490       .  S
Fe991      O1007   2.060       .  S
Fe991       O997   2.055   1_556  S
Fe991      O1004   2.052       .  S
Fe991       O996   2.027       .  S
Fe991      O1002   1.933       .  S
Fe992       O995   2.045       .  S
Fe992       O999   2.070       .  S
Fe992      O1003   2.060       .  S
Fe992      O1008   2.039       .  S
Fe992      O1002   1.928       .  S
Fe993      O1011   2.107   1_556  S
Fe993       O998   2.085       .  S
Fe993      O1005   2.091   1_556  S
Fe993       O994   2.137       .  S
Fe993      O1002   1.943       .  S
O994       C1001   1.284       .  A
O995       C1009   1.271       .  A
O996       C1001   1.266       .  A
O997       C1000   1.262       .  A
O998       C1010   1.274       .  A
O999       C1012   1.270       .  A
C1000      O1005   1.270       .  A
C1000      C3917   1.469       .  S
C1001      C3867   1.481       .  S
O1003      C1006   1.266       .  A
O1004      C1006   1.266       .  A
C1006      C3957   1.463       .  S
O1007      C1012   1.272       .  A
O1008      C1010   1.265       .  A
C1009      O1011   1.279   1_556  A
C1009      C3274   1.479   1_556  S
C1010      C3327   1.465       .  S
C1012      C3717   1.480       .  S
Fe1013     O1029   2.040       .  S
Fe1013     O1019   2.055       .  S
Fe1013     O1026   2.051       .  S
Fe1013     O1018   2.022       .  S
Fe1013     O1024   1.939       .  S
Fe1014     O1017   2.055       .  S
Fe1014     O1021   2.089       .  S
Fe1014     O1025   2.072       .  S
Fe1014     O1030   2.058       .  S
Fe1014     O1024   1.942       .  S
Fe1015     O1033   2.109       .  S
Fe1015     O1020   2.078       .  S
Fe1015     O1027   2.106       .  S
Fe1015     O1016   2.134       .  S
Fe1015     O1024   1.954       .  S
O1016      C1023   1.285       .  A
O1017      C1031   1.271       .  A
O1018      C1023   1.265       .  A
O1019      C1022   1.261       .  A
O1020      C1032   1.272       .  A
O1021      C1034   1.276       .  A
C1022      O1027   1.272       .  A
C1022      C3264   1.481       .  S
C1023      C3237   1.474       .  S
O1025      C1028   1.265       .  A
O1026      C1028   1.263       .  A
C1028      C3244   1.471       .  S
O1029      C1034   1.270       .  A
O1030      C1032   1.270       .  A
C1031      O1033   1.279       .  A
C1031      C4407   1.485       .  S
C1032      C4337   1.469       .  S
C1034      C3254   1.478       .  S
Fe1035     O1051   2.046       .  S
Fe1035     O1041   2.044       .  S
Fe1035     O1048   2.048       .  S
Fe1035     O1040   2.039       .  S
Fe1035     O1046   1.961       .  S
Fe1036     O1039   2.042       .  S
Fe1036     O1043   2.060       .  S
Fe1036     O1047   2.059       .  S
Fe1036     O1052   2.036       .  S
Fe1036     O1046   1.975       .  S
Fe1037     O1055   2.097       .  S
Fe1037     O1042   2.097       .  S
Fe1037     O1049   2.112       .  S
Fe1037     O1038   2.107       .  S
Fe1037     O1046   1.989       .  S
O1038      C1045   1.275       .  A
O1039      C1053   1.269       .  A
O1040      C1045   1.263       .  A
O1041      C1044   1.264       .  A
O1042      C1054   1.273       .  A
O1043      C1056   1.264       .  A
C1044      O1049   1.276       .  A
C1044      C3214   1.482       .  S
C1045      C3207   1.477       .  S
O1047      C1050   1.266       .  A
O1048      C1050   1.267       .  A
C1050      C3257   1.466       .  S
O1051      C1056   1.264       .  A
O1052      C1054   1.263       .  A
C1053      O1055   1.276       .  A
C1053      C4257   1.476       .  S
C1054      C4207   1.474       .  S
C1056      C3224   1.468       .  S
Fe1057     O1073   2.057       .  S
Fe1057     O1063   2.069       .  S
Fe1057     O1070   2.059       .  S
Fe1057     O1062   2.037       .  S
Fe1057     O1068   1.937       .  S
Fe1058     O1061   2.040       .  S
Fe1058     O1065   2.069       .  S
Fe1058     O1069   2.053       .  S
Fe1058     O1074   2.060       .  S
Fe1058     O1068   1.946       .  S
Fe1059     O1077   2.108       .  S
Fe1059     O1064   2.077       .  S
Fe1059     O1071   2.078       .  S
Fe1059     O1060   2.128       .  S
Fe1059     O1068   1.961       .  S
O1060      C1067   1.279       .  A
O1061      C1075   1.267       .  A
O1062      C1067   1.263       .  A
O1063      C1066   1.270       .  A
O1064      C1076   1.273       .  A
O1065      C1078   1.267       .  A
C1066      O1071   1.271       .  A
C1066      C3184   1.471       .  S
C1067      C3194   1.485       .  S
O1069      C1072   1.267       .  A
O1070      C1072   1.271       .  A
C1072      C3227   1.459       .  S
O1073      C1078   1.267       .  A
O1074      C1076   1.270       .  A
C1075      O1077   1.277       .  A
C1075      C4147   1.477       .  S
C1076      C4187   1.467       .  S
C1078      C3247   1.484       .  S
Fe1079     O1095   2.059       .  S
Fe1079     O1085   2.067   1_545  S
Fe1079     O1092   2.063   1_556  S
Fe1079     O1084   2.021   1_545  S
Fe1079     O1090   1.935       .  S
Fe1080     O1083   2.040   1_554  S
Fe1080     O1087   2.061   1_554  S
Fe1080     O1091   2.054       .  S
Fe1080     O1096   2.046       .  S
Fe1080     O1090   1.926   1_554  S
Fe1081     O1099   2.091   1_565  S
Fe1081     O1086   2.088   1_556  S
Fe1081     O1093   2.080   1_565  S
Fe1081     O1082   2.121       .  S
Fe1081     O1090   1.955   1_565  S
O1082      C1089   1.279       .  A
O1083      C1097   1.267       .  A
O1084      C1089   1.263       .  A
O1085      C1088   1.267   1_565  A
O1086      C1098   1.275   1_565  A
O1087      C1100   1.268       .  A
C1088      O1093   1.269       .  A
C1088      C3154   1.472       .  S
C1089      C3167   1.469       .  S
O1091      C1094   1.267       .  A
O1092      C1094   1.271       .  A
C1094      C3144   1.465       .  S
O1095      C1100   1.268       .  A
O1096      C1098   1.269       .  A
C1097      O1099   1.274       .  A
C1097      C4484   1.477       .  S
C1098      C4624   1.484   1_545  S
C1100      C3177   1.479       .  S
Fe1101     O1117   2.048       .  S
Fe1101     O1107   2.066       .  S
Fe1101     O1114   2.062   1_554  S
Fe1101     O1106   2.031   1_554  S
Fe1101     O1112   1.944   1_554  S
Fe1102     O1105   2.047       .  S
Fe1102     O1109   2.072       .  S
Fe1102     O1113   2.066       .  S
Fe1102     O1118   2.052       .  S
Fe1102     O1112   1.945       .  S
Fe1103     O1121   2.100       .  S
Fe1103     O1108   2.067   1_554  S
Fe1103     O1115   2.091       .  S
Fe1103     O1104   2.117       .  S
Fe1103     O1112   1.967   1_554  S
O1104      C1111   1.279       .  A
O1105      C1119   1.266   1_556  A
O1106      C1111   1.267   1_556  A
O1107      C1110   1.265       .  A
O1108      C1120   1.271       .  A
O1109      C1122   1.274       .  A
C1110      O1115   1.270       .  A
C1110      C3114   1.477       .  S
C1111      C3164   1.472       .  S
O1113      C1116   1.263       .  A
O1114      C1116   1.263       .  A
C1116      C3124   1.468       .  S
O1117      C1122   1.273   1_554  A
O1118      C1120   1.271       .  A
C1119      O1121   1.274       .  A
C1119      C3727   1.481       .  S
C1120      C4057   1.460       .  S
C1122      C3134   1.473   1_556  S
Fe1123     O1139   2.057   1_545  S
Fe1123     O1129   2.054       .  S
Fe1123     O1136   2.056       .  S
Fe1123     O1128   2.029       .  S
Fe1123     O1134   1.946       .  S
Fe1124     O1127   2.053   1_545  S
Fe1124     O1131   2.082   1_545  S
Fe1124     O1135   2.059       .  S
Fe1124     O1140   2.065       .  S
Fe1124     O1134   1.950       .  S
Fe1125     O1143   2.090       .  S
Fe1125     O1130   2.087       .  S
Fe1125     O1137   2.085       .  S
Fe1125     O1126   2.121       .  S
Fe1125     O1134   1.966       .  S
O1126      C1133   1.279       .  A
O1127      C1141   1.272   1_565  A
O1128      C1133   1.263       .  A
O1129      C1132   1.265       .  A
O1130      C1142   1.274       .  A
O1131      C1144   1.269       .  A
C1132      O1137   1.270       .  A
C1132      C3157   1.470       .  S
C1133      C3104   1.476       .  S
O1135      C1138   1.269       .  A
O1136      C1138   1.270       .  A
C1138      C3094   1.460       .  S
O1139      C1144   1.265       .  A
O1140      C1142   1.269       .  A
C1141      O1143   1.275       .  A
C1141      C3077   1.475   1_545  S
C1142      C3084   1.476       .  S
C1144      C3127   1.474       .  S
Fe1145     O1161   2.049       .  S
Fe1145     O1151   2.059       .  S
Fe1145     O1158   2.056       .  S
Fe1145     O1150   2.035       .  S
Fe1145     O1156   1.935       .  S
Fe1146     O1149   2.043       .  S
Fe1146     O1153   2.074       .  S
Fe1146     O1157   2.061       .  S
Fe1146     O1162   2.059       .  S
Fe1146     O1156   1.949       .  S
Fe1147     O1165   2.113       .  S
Fe1147     O1152   2.071       .  S
Fe1147     O1159   2.081       .  S
Fe1147     O1148   2.124       .  S
Fe1147     O1156   1.966       .  S
O1148      C1155   1.279       .  A
O1149      C1163   1.266       .  A
O1150      C1155   1.263       .  A
O1151      C1154   1.268       .  A
O1152      C1164   1.270       .  A
O1153      C1166   1.268       .  A
C1154      O1159   1.271       .  A
C1154      C3044   1.468       .  S
C1155      C3054   1.477       .  S
O1157      C1160   1.267       .  A
O1158      C1160   1.268       .  A
C1160      C3034   1.464       .  S
O1161      C1166   1.268       .  A
O1162      C1164   1.269       .  A
C1163      O1165   1.278       .  A
C1163      C4577   1.471       .  S
C1164      C4527   1.462       .  S
C1166      C3064   1.480       .  S
Fe1167     O1183   2.048       .  S
Fe1167     O1173   2.069       .  S
Fe1167     O1180   2.065       .  S
Fe1167     O1172   2.037       .  S
Fe1167     O1178   1.934       .  S
Fe1168     O1171   2.038       .  S
Fe1168     O1175   2.076       .  S
Fe1168     O1179   2.055       .  S
Fe1168     O1184   2.067       .  S
Fe1168     O1178   1.948       .  S
Fe1169     O1187   2.105       .  S
Fe1169     O1174   2.081       .  S
Fe1169     O1181   2.091       .  S
Fe1169     O1170   2.118       .  S
Fe1169     O1178   1.962       .  S
O1170      C1177   1.277       .  A
O1171      C1185   1.265       .  A
O1172      C1177   1.264       .  A
O1173      C1176   1.270       .  A
O1174      C1186   1.274       .  A
O1175      C1188   1.269       .  A
C1176      O1181   1.274       .  A
C1176      C3024   1.476       .  S
C1177      C3014   1.479       .  S
O1179      C1182   1.266       .  A
O1180      C1182   1.270       .  A
C1182      C3007   1.460       .  S
O1183      C1188   1.267       .  A
O1184      C1186   1.272       .  A
C1185      O1187   1.275       .  A
C1185      C2997   1.474       .  S
C1186      C2984   1.471       .  S
C1188      C3037   1.475       .  S
Fe1189     O1205   2.040       .  S
Fe1189     O1195   2.038       .  S
Fe1189     O1202   2.059       .  S
Fe1189     O1194   2.031       .  S
Fe1189     O1200   1.934       .  S
Fe1190     O1193   2.044       .  S
Fe1190     O1197   2.084       .  S
Fe1190     O1201   2.063       .  S
Fe1190     O1206   2.053       .  S
Fe1190     O1200   1.958       .  S
Fe1191     O1209   2.108       .  S
Fe1191     O1196   2.082       .  S
Fe1191     O1203   2.094       .  S
Fe1191     O1192   2.119       .  S
Fe1191     O1200   1.968       .  S
O1192      C1199   1.280       .  A
O1193      C1207   1.274       .  A
O1194      C1199   1.267       .  A
O1195      C1198   1.262       .  A
O1196      C1208   1.269       .  A
O1197      C1210   1.267       .  A
C1198      O1203   1.271       .  A
C1198      C2964   1.471       .  S
C1199      C2977   1.478       .  S
O1201      C1204   1.269       .  A
O1202      C1204   1.270       .  A
C1204      C3067   1.462       .  S
O1205      C1210   1.260       .  A
O1206      C1208   1.264       .  A
C1207      O1209   1.282       .  A
C1207      C2944   1.474       .  S
C1208      C2957   1.469       .  S
C1210      C3004   1.473       .  S
Fe1211     O1227   2.050       .  S
Fe1211     O1217   2.049       .  S
Fe1211     O1224   2.041       .  S
Fe1211     O1216   2.026   1_545  S
Fe1211     O1222   1.943       .  S
Fe1212     O1215   2.060       .  S
Fe1212     O1219   2.093       .  S
Fe1212     O1223   2.076       .  S
Fe1212     O1228   2.064       .  S
Fe1212     O1222   1.938       .  S
Fe1213     O1231   2.095   1_565  S
Fe1213     O1218   2.110       .  S
Fe1213     O1225   2.120   1_565  S
Fe1213     O1214   2.134       .  S
Fe1213     O1222   1.949   1_565  S
O1214      C1221   1.285       .  A
O1215      C1229   1.272       .  A
O1216      C1221   1.267       .  A
O1217      C1220   1.259       .  A
O1218      C1230   1.279   1_565  A
O1219      C1232   1.277       .  A
C1220      O1225   1.275       .  A
C1220      C4454   1.485       .  S
C1221      C4697   1.473       .  S
O1223      C1226   1.267       .  A
O1224      C1226   1.261       .  A
C1226      C4654   1.470       .  S
O1227      C1232   1.271       .  A
O1228      C1230   1.270       .  A
C1229      O1231   1.277       .  A
C1229      C2954   1.476       .  S
C1230      C2934   1.488   1_545  S
C1232      C4607   1.485       .  S
Fe1233     O1249   2.041       .  S
Fe1233     O1239   2.069   1_545  S
Fe1233     O1246   2.058       .  S
Fe1233     O1238   2.027       .  S
Fe1233     O1244   1.936       .  S
Fe1234     O1237   2.052       .  S
Fe1234     O1241   2.084       .  S
Fe1234     O1245   2.068       .  S
Fe1234     O1250   2.064       .  S
Fe1234     O1244   1.943       .  S
Fe1235     O1253   2.132       .  S
Fe1235     O1240   2.074   1_565  S
Fe1235     O1247   2.092       .  S
Fe1235     O1236   2.155   1_565  S
Fe1235     O1244   1.954   1_565  S
O1236      C1243   1.287       .  A
O1237      C1251   1.268       .  A
O1238      C1243   1.263       .  A
O1239      C1242   1.266       .  A
O1240      C1252   1.273       .  A
O1241      C1254   1.274       .  A
C1242      O1247   1.271       .  A
C1242      C3117   1.478       .  S
C1243      C2924   1.488       .  S
O1245      C1248   1.266       .  A
O1246      C1248   1.266       .  A
C1248      C2917   1.469       .  S
O1249      C1254   1.268       .  A
O1250      C1252   1.273       .  A
C1251      O1253   1.282   1_545  A
C1251      C2937   1.496   1_545  S
C1252      C2947   1.465       .  S
C1254      C3147   1.476       .  S
Fe1255     O1271   2.061   1_556  S
Fe1255     O1261   2.024       .  S
Fe1255     O1268   2.038       .  S
Fe1255     O1260   2.080       .  S
Fe1255     O1266   1.931       .  S
Fe1256     O1259   2.079       .  S
Fe1256     O1263   2.065       .  S
Fe1256     O1267   2.088   1_554  S
Fe1256     O1272   2.047   1_554  S
Fe1256     O1266   1.932   1_554  S
Fe1257     O1275   2.077       .  S
Fe1257     O1262   2.095       .  S
Fe1257     O1269   2.136       .  S
Fe1257     O1258   2.081       .  S
Fe1257     O1266   1.956       .  S
O1258      C1265   1.269       .  A
O1259      C1273   1.278       .  A
O1260      C1265   1.269       .  A
O1261      C1264   1.260       .  A
O1262      C1274   1.272       .  A
O1263      C1276   1.266       .  A
C1264      O1269   1.281       .  A
C1264      C2904   1.473       .  S
C1265      C3107   1.476       .  S
O1267      C1270   1.276       .  A
O1268      C1270   1.268       .  A
C1270      C3174   1.480       .  S
O1271      C1276   1.268       .  A
O1272      C1274   1.265       .  A
C1273      O1275   1.278   1_554  A
C1273      C2987   1.475       .  S
C1274      C2894   1.480       .  S
C1276      C2914   1.474       .  S
Fe1277     O1293   2.043       .  S
Fe1277     O1283   2.074       .  S
Fe1277     O1290   2.056   1_556  S
Fe1277     O1282   2.022       .  S
Fe1277     O1288   1.934       .  S
Fe1278     O1281   2.044   1_554  S
Fe1278     O1285   2.091       .  S
Fe1278     O1289   2.065       .  S
Fe1278     O1294   2.077       .  S
Fe1278     O1288   1.942   1_554  S
Fe1279     O1297   2.098       .  S
Fe1279     O1284   2.068       .  S
Fe1279     O1291   2.082       .  S
Fe1279     O1280   2.124       .  S
Fe1279     O1288   1.961       .  S
O1280      C1287   1.279       .  A
O1281      C1295   1.266       .  A
O1282      C1287   1.262       .  A
O1283      C1286   1.268       .  A
O1284      C1296   1.272   1_556  A
O1285      C1298   1.275   1_554  A
C1286      O1291   1.270       .  A
C1286      C4737   1.475       .  S
C1287      C4427   1.470       .  S
O1289      C1292   1.266       .  A
O1290      C1292   1.267       .  A
C1292      C4554   1.468       .  S
O1293      C1298   1.269       .  A
O1294      C1296   1.275       .  A
C1295      O1297   1.274       .  A
C1295      C2897   1.477       .  S
C1296      C2994   1.466       .  S
C1298      C4507   1.484       .  S
Fe1299     O1315   2.046   1_455  S
Fe1299     O1305   2.071       .  S
Fe1299     O1312   2.063       .  S
Fe1299     O1304   2.021       .  S
Fe1299     O1310   1.946       .  S
Fe1300     O1303   2.042       .  S
Fe1300     O1307   2.076       .  S
Fe1300     O1311   2.066       .  S
Fe1300     O1316   2.065   1_655  S
Fe1300     O1310   1.945   1_655  S
Fe1301     O1319   2.090   1_455  S
Fe1301     O1306   2.081       .  S
Fe1301     O1313   2.099       .  S
Fe1301     O1302   2.119       .  S
Fe1301     O1310   1.966       .  S
O1302      C1309   1.279       .  A
O1303      C1317   1.265       .  A
O1304      C1309   1.264       .  A
O1305      C1308   1.265       .  A
O1306      C1318   1.275       .  A
O1307      C1320   1.275       .  A
C1308      O1313   1.272       .  A
C1308      C3827   1.483       .  S
C1309      C3777   1.470       .  S
O1311      C1314   1.265   1_655  A
O1312      C1314   1.266       .  A
C1314      C3744   1.476       .  S
O1315      C1320   1.270       .  A
O1316      C1318   1.274       .  A
C1317      O1319   1.271       .  A
C1317      C2874   1.477       .  S
C1318      C2884   1.471       .  S
C1320      C4017   1.477       .  S
Fe1321     O1337   2.049       .  S
Fe1321     O1327   2.049       .  S
Fe1321     O1334   2.050       .  S
Fe1321     O1326   2.023       .  S
Fe1321     O1332   1.955       .  S
Fe1322     O1325   2.066       .  S
Fe1322     O1329   2.083       .  S
Fe1322     O1333   2.084   1_545  S
Fe1322     O1338   2.063       .  S
Fe1322     O1332   1.956       .  S
Fe1323     O1341   2.085       .  S
Fe1323     O1328   2.071       .  S
Fe1323     O1335   2.090       .  S
Fe1323     O1324   2.113       .  S
Fe1323     O1332   1.978       .  S
O1324      C1331   1.278       .  A
O1325      C1339   1.272       .  A
O1326      C1331   1.264       .  A
O1327      C1330   1.262       .  A
O1328      C1340   1.270       .  A
O1329      C1342   1.274       .  A
C1330      O1335   1.268       .  A
C1330      C4587   1.473       .  S
C1331      C4647   1.469       .  S
O1333      C1336   1.269       .  A
O1334      C1336   1.264   1_545  A
C1336      C4707   1.484       .  S
O1337      C1342   1.269       .  A
O1338      C1340   1.271       .  A
C1339      O1341   1.272       .  A
C1339      C2864   1.480       .  S
C1340      C2877   1.469   1_545  S
C1342      C4467   1.481       .  S
Fe1343     O1359   2.045       .  S
Fe1343     O1349   2.073       .  S
Fe1343     O1356   2.061       .  S
Fe1343     O1348   2.032       .  S
Fe1343     O1354   1.932       .  S
Fe1344     O1347   2.046       .  S
Fe1344     O1351   2.067       .  S
Fe1344     O1355   2.064       .  S
Fe1344     O1360   2.059       .  S
Fe1344     O1354   1.944       .  S
Fe1345     O1363   2.089       .  S
Fe1345     O1350   2.073       .  S
Fe1345     O1357   2.092       .  S
Fe1345     O1346   2.104       .  S
Fe1345     O1354   1.960       .  S
O1346      C1353   1.274       .  A
O1347      C1361   1.265       .  A
O1348      C1353   1.263       .  A
O1349      C1352   1.269       .  A
O1350      C1362   1.274       .  A
O1351      C1364   1.270       .  A
C1352      O1357   1.274       .  A
C1352      C2834   1.478       .  S
C1353      C2844   1.469       .  S
O1355      C1358   1.266       .  A
O1356      C1358   1.267       .  A
C1358      C2854   1.466       .  S
O1359      C1364   1.269       .  A
O1360      C1362   1.272       .  A
C1361      O1363   1.271       .  A
C1361      C2814   1.471       .  S
C1362      C2804   1.463       .  S
C1364      C2824   1.472       .  S
Fe1365     O1381   2.073   1_455  S
Fe1365     O1371   2.024       .  S
Fe1365     O1378   2.031       .  S
Fe1365     O1370   2.040       .  S
Fe1365     O1376   1.956       .  S
Fe1366     O1369   2.059       .  S
Fe1366     O1373   2.064       .  S
Fe1366     O1377   2.083   1_655  S
Fe1366     O1382   2.036   1_655  S
Fe1366     O1376   1.974   1_655  S
Fe1367     O1385   2.074       .  S
Fe1367     O1372   2.069       .  S
Fe1367     O1379   2.081       .  S
Fe1367     O1368   2.092       .  S
Fe1367     O1376   2.001       .  S
O1368      C1375   1.268       .  A
O1369      C1383   1.267       .  A
O1370      C1375   1.262       .  A
O1371      C1374   1.265       .  A
O1372      C1384   1.271       .  A
O1373      C1386   1.266       .  A
C1374      O1379   1.272       .  A
C1374      C2777   1.476       .  S
C1375      C2764   1.477       .  S
O1377      C1380   1.269       .  A
O1378      C1380   1.261       .  A
C1380      C2797   1.466       .  S
O1381      C1386   1.270       .  A
O1382      C1384   1.269       .  A
C1383      O1385   1.267   1_655  A
C1383      C4037   1.474       .  S
C1384      C3754   1.453       .  S
C1386      C2787   1.473       .  S
Fe1387     O1403   2.038       .  S
Fe1387     O1393   2.071       .  S
Fe1387     O1400   2.072   1_545  S
Fe1387     O1392   2.020       .  S
Fe1387     O1398   1.924       .  S
Fe1388     O1391   2.046       .  S
Fe1388     O1395   2.094       .  S
Fe1388     O1399   2.063   1_545  S
Fe1388     O1404   2.079   1_545  S
Fe1388     O1398   1.942       .  S
Fe1389     O1407   2.103       .  S
Fe1389     O1394   2.040       .  S
Fe1389     O1401   2.057       .  S
Fe1389     O1390   2.126       .  S
Fe1389     O1398   1.956       .  S
O1390      C1397   1.280       .  A
O1391      C1405   1.268       .  A
O1392      C1397   1.263       .  A
O1393      C1396   1.268       .  A
O1394      C1406   1.266   1_545  A
O1395      C1408   1.272       .  A
C1396      O1401   1.264       .  A
C1396      C2754   1.460       .  S
C1397      C2734   1.471       .  S
O1399      C1402   1.268       .  A
O1400      C1402   1.270       .  A
C1402      C2784   1.469       .  S
O1403      C1408   1.266       .  A
O1404      C1406   1.275       .  A
C1405      O1407   1.276       .  A
C1405      C4477   1.479       .  S
C1406      C4814   1.453       .  S
C1408      C2744   1.469       .  S
Fe1409     O1425   2.042   1_565  S
Fe1409     O1415   2.029       .  S
Fe1409     O1422   2.046   1_565  S
Fe1409     O1414   2.089   1_455  S
Fe1409     O1420   1.909   1_565  S
Fe1410     O1413   2.084       .  S
Fe1410     O1417   2.084       .  S
Fe1410     O1421   2.091       .  S
Fe1410     O1426   2.058       .  S
Fe1410     O1420   1.924       .  S
Fe1411     O1429   2.053   1_655  S
Fe1411     O1416   2.066   1_565  S
Fe1411     O1423   2.108       .  S
Fe1411     O1412   2.067       .  S
Fe1411     O1420   1.970   1_665  S
O1412      C1419   1.270       .  A
O1413      C1427   1.282   1_545  A
O1414      C1419   1.273       .  A
O1415      C1418   1.253       .  A
O1416      C1428   1.264       .  A
O1417      C1430   1.268       .  A
C1418      O1423   1.268   1_455  A
C1418      C2774   1.452       .  S
C1419      C2737   1.470   1_565  S
O1421      C1424   1.279       .  A
O1422      C1424   1.273       .  A
C1424      C2724   1.482       .  S
O1425      C1430   1.261       .  A
O1426      C1428   1.266   1_455  A
C1427      O1429   1.275       .  A
C1427      C2694   1.459       .  S
C1428      C2704   1.463       .  S
C1430      C2714   1.476       .  S
Fe1431     O1447   2.042       .  S
Fe1431     O1437   2.065       .  S
Fe1431     O1444   2.071       .  S
Fe1431     O1436   2.026   1_545  S
Fe1431     O1442   1.956       .  S
Fe1432     O1435   2.031       .  S
Fe1432     O1439   2.064       .  S
Fe1432     O1443   2.059       .  S
Fe1432     O1448   2.054       .  S
Fe1432     O1442   1.966       .  S
Fe1433     O1451   2.087   1_565  S
Fe1433     O1438   2.094       .  S
Fe1433     O1445   2.100   1_565  S
Fe1433     O1434   2.108       .  S
Fe1433     O1442   1.990   1_565  S
O1434      C1441   1.275       .  A
O1435      C1449   1.264       .  A
O1436      C1441   1.262       .  A
O1437      C1440   1.268       .  A
O1438      C1450   1.275       .  A
O1439      C1452   1.267       .  A
C1440      O1445   1.273       .  A
C1440      C2684   1.484       .  S
C1441      C2767   1.469       .  S
O1443      C1446   1.266       .  A
O1444      C1446   1.270       .  A
C1446      C2717   1.474       .  S
O1447      C1452   1.264       .  A
O1448      C1450   1.268   1_545  A
C1449      O1451   1.271       .  A
C1449      C2654   1.467       .  S
C1450      C2664   1.477       .  S
C1452      C2674   1.475       .  S
Fe1453     O1469   2.043       .  S
Fe1453     O1459   2.062       .  S
Fe1453     O1466   2.057   1_655  S
Fe1453     O1458   2.015   1_655  S
Fe1453     O1464   1.932   1_655  S
Fe1454     O1457   2.048       .  S
Fe1454     O1461   2.098       .  S
Fe1454     O1465   2.059       .  S
Fe1454     O1470   2.076       .  S
Fe1454     O1464   1.934       .  S
Fe1455     O1473   2.113       .  S
Fe1455     O1460   2.050   1_655  S
Fe1455     O1467   2.062       .  S
Fe1455     O1456   2.143       .  S
Fe1455     O1464   1.950   1_655  S
O1456      C1463   1.285   1_655  A
O1457      C1471   1.270   1_455  A
O1458      C1463   1.262       .  A
O1459      C1462   1.265       .  A
O1460      C1472   1.267       .  A
O1461      C1474   1.276       .  A
C1462      O1467   1.263       .  A
C1462      C2757   1.459       .  S
C1463      C2647   1.477       .  S
O1465      C1468   1.267       .  A
O1466      C1468   1.268       .  A
C1468      C2677   1.463       .  S
O1469      C1474   1.268   1_655  A
O1470      C1472   1.274       .  A
C1471      O1473   1.280       .  A
C1471      C2637   1.482       .  S
C1472      C2624   1.460       .  S
C1474      C2727   1.485       .  S
Fe1475     O1491   2.055   1_655  S
Fe1475     O1481   2.059       .  S
Fe1475     O1488   2.048   1_655  S
Fe1475     O1480   2.029       .  S
Fe1475     O1486   1.931       .  S
Fe1476     O1479   2.048       .  S
Fe1476     O1483   2.094       .  S
Fe1476     O1487   2.064       .  S
Fe1476     O1492   2.072       .  S
Fe1476     O1486   1.929   1_455  S
Fe1477     O1495   2.089   1_655  S
Fe1477     O1482   2.081       .  S
Fe1477     O1489   2.082       .  S
Fe1477     O1478   2.130       .  S
Fe1477     O1486   1.944       .  S
O1478      C1485   1.283       .  A
O1479      C1493   1.270       .  A
O1480      C1485   1.265       .  A
O1481      C1484   1.263       .  A
O1482      C1494   1.275       .  A
O1483      C1496   1.276       .  A
C1484      O1489   1.268       .  A
C1484      C2597   1.468       .  S
C1485      C2584   1.475       .  S
O1487      C1490   1.267       .  A
O1488      C1490   1.265       .  A
C1490      C2604   1.460   1_455  S
O1491      C1496   1.271       .  A
O1492      C1494   1.272   1_455  A
C1493      O1495   1.275       .  A
C1493      C2614   1.475       .  S
C1494      C2634   1.472       .  S
C1496      C2574   1.487       .  S
Fe1497     O1513   2.052       .  S
Fe1497     O1503   2.058       .  S
Fe1497     O1510   2.056       .  S
Fe1497     O1502   2.029       .  S
Fe1497     O1508   1.932       .  S
Fe1498     O1501   2.027       .  S
Fe1498     O1505   2.081       .  S
Fe1498     O1509   2.049       .  S
Fe1498     O1514   2.058       .  S
Fe1498     O1508   1.943       .  S
Fe1499     O1517   2.104       .  S
Fe1499     O1504   2.064       .  S
Fe1499     O1511   2.070       .  S
Fe1499     O1500   2.123       .  S
Fe1499     O1508   1.960       .  S
O1500      C1507   1.280       .  A
O1501      C1515   1.266       .  A
O1502      C1507   1.264       .  A
O1503      C1506   1.267       .  A
O1504      C1516   1.268       .  A
O1505      C1518   1.270       .  A
C1506      O1511   1.267       .  A
C1506      C2557   1.464       .  S
C1507      C2564   1.476       .  S
O1509      C1512   1.265       .  A
O1510      C1512   1.269       .  A
C1512      C2827   1.460       .  S
O1513      C1518   1.268       .  A
O1514      C1516   1.269       .  A
C1515      O1517   1.278       .  A
C1515      C2627   1.470       .  S
C1516      C2617   1.461       .  S
C1518      C2544   1.484       .  S
Fe1519     O1535   2.049       .  S
Fe1519     O1525   2.034       .  S
Fe1519     O1532   2.047       .  S
Fe1519     O1524   2.036       .  S
Fe1519     O1530   1.950       .  S
Fe1520     O1523   2.059       .  S
Fe1520     O1527   2.083       .  S
Fe1520     O1531   2.073       .  S
Fe1520     O1536   2.056       .  S
Fe1520     O1530   1.965       .  S
Fe1521     O1539   2.073       .  S
Fe1521     O1526   2.051       .  S
Fe1521     O1533   2.067       .  S
Fe1521     O1522   2.086       .  S
Fe1521     O1530   1.990       .  S
O1522      C1529   1.273       .  A
O1523      C1537   1.274       .  A
O1524      C1529   1.266       .  A
O1525      C1528   1.261       .  A
O1526      C1538   1.262       .  A
O1527      C1540   1.270       .  A
C1528      O1533   1.263       .  A
C1528      C2534   1.458       .  S
C1529      C2524   1.463       .  S
O1531      C1534   1.269       .  A
O1532      C1534   1.266       .  A
C1534      C2547   1.471       .  S
O1535      C1540   1.266       .  A
O1536      C1538   1.266       .  A
C1537      O1539   1.273       .  A
C1537      C2514   1.469       .  S
C1538      C2657   1.462       .  S
C1540      C2857   1.477       .  S
Fe1541     O1557   2.058   1_545  S
Fe1541     O1547   2.071   1_545  S
Fe1541     O1554   2.058       .  S
Fe1541     O1546   2.030       .  S
Fe1541     O1552   1.941       .  S
Fe1542     O1545   2.060       .  S
Fe1542     O1549   2.076       .  S
Fe1542     O1553   2.070       .  S
Fe1542     O1558   2.059       .  S
Fe1542     O1552   1.938       .  S
Fe1543     O1561   2.099       .  S
Fe1543     O1548   2.068   1_565  S
Fe1543     O1555   2.081       .  S
Fe1543     O1544   2.130       .  S
Fe1543     O1552   1.963   1_565  S
O1544      C1551   1.280   1_565  A
O1545      C1559   1.269   1_545  A
O1546      C1551   1.262       .  A
O1547      C1550   1.268       .  A
O1548      C1560   1.274       .  A
O1549      C1562   1.273       .  A
C1550      O1555   1.270       .  A
C1550      C2494   1.473       .  S
C1551      C2484   1.479       .  S
O1553      C1556   1.269       .  A
O1554      C1556   1.267       .  A
C1556      C2474   1.476       .  S
O1557      C1562   1.271   1_565  A
O1558      C1560   1.273       .  A
C1559      O1561   1.273       .  A
C1559      C2667   1.488       .  S
C1560      C2517   1.462       .  S
C1562      C2504   1.484   1_545  S
Fe1563     O1579   2.064   1_545  S
Fe1563     O1569   2.018       .  S
Fe1563     O1576   2.022   1_455  S
Fe1563     O1568   2.059       .  S
Fe1563     O1574   1.958       .  S
Fe1564     O1567   2.057   1_645  S
Fe1564     O1571   2.053   1_645  S
Fe1564     O1575   2.080       .  S
Fe1564     O1580   2.023       .  S
Fe1564     O1574   1.972   1_655  S
Fe1565     O1583   2.090       .  S
Fe1565     O1570   2.102       .  S
Fe1565     O1577   2.123       .  S
Fe1565     O1566   2.103       .  S
Fe1565     O1574   1.992       .  S
O1566      C1573   1.278       .  A
O1567      C1581   1.273   1_565  A
O1568      C1573   1.271       .  A
O1569      C1572   1.255       .  A
O1570      C1582   1.272   1_455  A
O1571      C1584   1.265       .  A
C1572      O1577   1.274       .  A
C1572      C2687   1.481       .  S
C1573      C2644   1.478       .  S
O1575      C1578   1.267       .  A
O1576      C1578   1.261       .  A
C1578      C2747   1.482       .  S
O1579      C1584   1.270       .  A
O1580      C1582   1.260       .  A
C1581      O1583   1.277       .  A
C1581      C2887   1.474   1_545  S
C1582      C2867   1.476       .  S
C1584      C2794   1.468       .  S
Fe1585     O1601   2.049       .  S
Fe1585     O1591   2.048       .  S
Fe1585     O1598   2.055       .  S
Fe1585     O1590   2.030       .  S
Fe1585     O1596   1.947       .  S
Fe1586     O1589   2.048       .  S
Fe1586     O1593   2.080       .  S
Fe1586     O1597   2.064       .  S
Fe1586     O1602   2.057       .  S
Fe1586     O1596   1.962       .  S
Fe1587     O1605   2.082       .  S
Fe1587     O1592   2.049       .  S
Fe1587     O1599   2.061       .  S
Fe1587     O1588   2.095       .  S
Fe1587     O1596   1.987       .  S
O1588      C1595   1.273       .  A
O1589      C1603   1.270       .  A
O1590      C1595   1.264       .  A
O1591      C1594   1.265       .  A
O1592      C1604   1.263       .  A
O1593      C1606   1.269       .  A
C1594      O1599   1.263       .  A
C1594      C2537   1.458       .  S
C1595      C2847   1.464       .  S
O1597      C1600   1.268       .  A
O1598      C1600   1.268       .  A
C1600      C2444   1.469       .  S
O1601      C1606   1.266       .  A
O1602      C1604   1.268       .  A
C1603      O1605   1.273       .  A
C1603      C2464   1.469       .  S
C1604      C2454   1.457       .  S
C1606      C2434   1.481       .  S
Fe1607     O1623   2.047       .  S
Fe1607     O1613   2.063       .  S
Fe1607     O1620   2.053       .  S
Fe1607     O1612   2.029       .  S
Fe1607     O1618   1.942       .  S
Fe1608     O1611   2.046       .  S
Fe1608     O1615   2.083       .  S
Fe1608     O1619   2.067       .  S
Fe1608     O1624   2.065       .  S
Fe1608     O1618   1.951       .  S
Fe1609     O1627   2.104       .  S
Fe1609     O1614   2.082       .  S
Fe1609     O1621   2.096       .  S
Fe1609     O1610   2.126       .  S
Fe1609     O1618   1.964       .  S
O1610      C1617   1.280       .  A
O1611      C1625   1.267       .  A
O1612      C1617   1.263       .  A
O1613      C1616   1.266       .  A
O1614      C1626   1.274       .  A
O1615      C1628   1.273       .  A
C1616      O1621   1.273       .  A
C1616      C2837   1.478       .  S
C1617      C2567   1.476       .  S
O1619      C1622   1.266       .  A
O1620      C1622   1.266       .  A
C1622      C2404   1.468       .  S
O1623      C1628   1.269       .  A
O1624      C1626   1.272       .  A
C1625      O1627   1.275       .  A
C1625      C2414   1.480       .  S
C1626      C2424   1.470       .  S
C1628      C2447   1.481       .  S
Fe1629     O1645   2.048       .  S
Fe1629     O1635   2.051       .  S
Fe1629     O1642   2.054       .  S
Fe1629     O1634   2.029       .  S
Fe1629     O1640   1.948       .  S
Fe1630     O1633   2.050       .  S
Fe1630     O1637   2.081       .  S
Fe1630     O1641   2.069       .  S
Fe1630     O1646   2.064       .  S
Fe1630     O1640   1.960       .  S
Fe1631     O1649   2.073       .  S
Fe1631     O1636   2.060       .  S
Fe1631     O1643   2.072       .  S
Fe1631     O1632   2.092       .  S
Fe1631     O1640   1.984       .  S
O1632      C1639   1.272       .  A
O1633      C1647   1.269       .  A
O1634      C1639   1.263       .  A
O1635      C1638   1.265       .  A
O1636      C1648   1.267       .  A
O1637      C1650   1.270       .  A
C1638      O1643   1.267       .  A
C1638      C2554   1.464       .  S
C1639      C2527   1.462       .  S
O1641      C1644   1.267       .  A
O1642      C1644   1.266       .  A
C1644      C2437   1.468       .  S
O1645      C1650   1.267       .  A
O1646      C1648   1.271       .  A
C1647      O1649   1.270       .  A
C1647      C2384   1.466       .  S
C1648      C2394   1.463       .  S
C1650      C2407   1.479       .  S
Fe1651     O1667   2.035       .  S
Fe1651     O1657   2.040       .  S
Fe1651     O1664   2.078       .  S
Fe1651     O1656   2.019       .  S
Fe1651     O1662   1.933       .  S
Fe1652     O1655   2.039       .  S
Fe1652     O1659   2.082       .  S
Fe1652     O1663   2.056       .  S
Fe1652     O1668   2.047       .  S
Fe1652     O1662   1.958       .  S
Fe1653     O1671   2.128       .  S
Fe1653     O1658   2.067       .  S
Fe1653     O1665   2.087       .  S
Fe1653     O1654   2.135       .  S
Fe1653     O1662   1.972       .  S
O1654      C1661   1.283       .  A
O1655      C1669   1.272       .  A
O1656      C1661   1.266       .  A
O1657      C1660   1.263       .  A
O1658      C1670   1.265       .  A
O1659      C1672   1.266       .  A
C1660      O1665   1.270       .  A
C1660      C3047   1.470       .  S
C1661      C2974   1.497       .  S
O1663      C1666   1.268       .  A
O1664      C1666   1.273       .  A
C1666      C2374   1.463       .  S
O1667      C1672   1.259       .  A
O1668      C1670   1.264       .  A
C1669      O1671   1.286       .  A
C1669      C2354   1.479       .  S
C1670      C2467   1.460       .  S
C1672      C2367   1.470       .  S
Fe1673     O1689   2.057       .  S
Fe1673     O1679   2.054       .  S
Fe1673     O1686   2.043       .  S
Fe1673     O1678   2.035       .  S
Fe1673     O1684   1.932       .  S
Fe1674     O1677   2.038       .  S
Fe1674     O1681   2.091       .  S
Fe1674     O1685   2.074       .  S
Fe1674     O1690   2.067       .  S
Fe1674     O1684   1.933       .  S
Fe1675     O1693   2.084       .  S
Fe1675     O1680   2.082       .  S
Fe1675     O1687   2.089       .  S
Fe1675     O1676   2.127       .  S
Fe1675     O1684   1.953       .  S
O1676      C1683   1.284       .  A
O1677      C1691   1.269       .  A
O1678      C1683   1.269       .  A
O1679      C1682   1.259       .  A
O1680      C1692   1.273       .  A
O1681      C1694   1.275       .  A
C1682      O1687   1.266       .  A
C1682      C3187   1.471       .  S
C1683      C3234   1.476       .  S
O1685      C1688   1.268       .  A
O1686      C1688   1.263       .  A
C1688      C2334   1.478       .  S
O1689      C1694   1.273       .  A
O1690      C1692   1.271       .  A
C1691      O1693   1.274       .  A
C1691      C2457   1.464       .  S
C1692      C2357   1.474       .  S
C1694      C2344   1.486       .  S
Fe1695     O1711   2.042       .  S
Fe1695     O1701   2.048       .  S
Fe1695     O1708   2.052   1_545  S
Fe1695     O1700   2.039   1_556  S
Fe1695     O1706   1.953       .  S
Fe1696     O1699   2.027       .  S
Fe1696     O1703   2.069       .  S
Fe1696     O1707   2.048   1_545  S
Fe1696     O1712   2.044   1_545  S
Fe1696     O1706   1.967       .  S
Fe1697     O1715   2.114   1_554  S
Fe1697     O1702   2.082       .  S
Fe1697     O1709   2.090   1_554  S
Fe1697     O1698   2.132       .  S
Fe1697     O1706   1.981   1_554  S
O1698      C1705   1.282       .  A
O1699      C1713   1.266       .  A
O1700      C1705   1.264       .  A
O1701      C1704   1.264       .  A
O1702      C1714   1.269   1_545  A
O1703      C1716   1.265       .  A
C1704      O1709   1.270       .  A
C1704      C2907   1.476       .  S
C1705      C2927   1.488       .  S
O1707      C1710   1.265       .  A
O1708      C1710   1.269       .  A
C1710      C3137   1.458       .  S
O1711      C1716   1.263       .  A
O1712      C1714   1.264   1_556  A
C1713      O1715   1.281       .  A
C1713      C3337   1.476       .  S
C1714      C3277   1.469       .  S
C1716      C3097   1.474       .  S
Fe1717     O1733   2.053       .  S
Fe1717     O1723   2.049       .  S
Fe1717     O1730   2.056       .  S
Fe1717     O1722   2.040       .  S
Fe1717     O1728   1.950       .  S
Fe1718     O1721   2.035       .  S
Fe1718     O1725   2.071       .  S
Fe1718     O1729   2.055       .  S
Fe1718     O1734   2.052       .  S
Fe1718     O1728   1.966       .  S
Fe1719     O1737   2.098       .  S
Fe1719     O1724   2.081       .  S
Fe1719     O1731   2.089       .  S
Fe1719     O1720   2.106       .  S
Fe1719     O1728   1.984       .  S
O1720      C1727   1.276       .  A
O1721      C1735   1.268       .  A
O1722      C1727   1.265       .  A
O1723      C1726   1.265       .  A
O1724      C1736   1.269       .  A
O1725      C1738   1.266       .  A
C1726      O1731   1.271       .  A
C1726      C2967   1.473       .  S
C1727      C3017   1.474       .  S
O1729      C1732   1.266       .  A
O1730      C1732   1.269       .  A
C1732      C2314   1.461       .  S
O1733      C1738   1.265       .  A
O1734      C1736   1.265       .  A
C1735      O1737   1.277       .  A
C1735      C2397   1.470       .  S
C1736      C2324   1.470       .  S
C1738      C2377   1.476       .  S
Fe1739     O1755   2.045       .  S
Fe1739     O1745   2.072       .  S
Fe1739     O1752   2.071       .  S
Fe1739     O1744   2.037       .  S
Fe1739     O1750   1.932       .  S
Fe1740     O1743   2.030       .  S
Fe1740     O1747   2.077       .  S
Fe1740     O1751   2.050       .  S
Fe1740     O1756   2.069       .  S
Fe1740     O1750   1.946       .  S
Fe1741     O1759   2.115       .  S
Fe1741     O1746   2.076       .  S
Fe1741     O1753   2.088       .  S
Fe1741     O1742   2.125       .  S
Fe1741     O1750   1.958       .  S
O1742      C1749   1.280       .  A
O1743      C1757   1.264       .  A
O1744      C1749   1.265       .  A
O1745      C1748   1.270       .  A
O1746      C1758   1.272       .  A
O1747      C1760   1.269       .  A
C1748      O1753   1.273       .  A
C1748      C3027   1.477       .  S
C1749      C3057   1.483       .  S
O1751      C1754   1.265       .  A
O1752      C1754   1.271       .  A
C1754      C2364   1.459       .  S
O1755      C1760   1.266       .  A
O1756      C1758   1.271       .  A
C1757      O1759   1.278       .  A
C1757      C2304   1.474       .  S
C1758      C2294   1.467       .  S
C1760      C2317   1.473       .  S
Fe1761     O1777   2.041       .  S
Fe1761     O1767   2.040       .  S
Fe1761     O1774   2.043       .  S
Fe1761     O1766   2.028       .  S
Fe1761     O1772   1.961       .  S
Fe1762     O1765   2.059       .  S
Fe1762     O1769   2.079       .  S
Fe1762     O1773   2.076       .  S
Fe1762     O1778   2.052       .  S
Fe1762     O1772   1.970       .  S
Fe1763     O1781   2.118       .  S
Fe1763     O1768   2.088       .  S
Fe1763     O1775   2.110       .  S
Fe1763     O1764   2.132       .  S
Fe1763     O1772   1.984       .  S
O1764      C1771   1.282       .  A
O1765      C1779   1.271       .  A
O1766      C1771   1.263       .  A
O1767      C1770   1.261       .  A
O1768      C1780   1.272       .  A
O1769      C1782   1.271       .  A
C1770      O1775   1.274       .  A
C1770      C3217   1.480       .  S
C1771      C3197   1.481       .  S
O1773      C1776   1.268       .  A
O1774      C1776   1.263       .  A
C1776      C2347   1.475       .  S
O1777      C1782   1.266       .  A
O1778      C1780   1.267       .  A
C1779      O1781   1.281       .  A
C1779      C2284   1.493       .  S
C1780      C2417   1.475       .  S
C1782      C2274   1.480       .  S
Fe1783     O1799   2.033       .  S
Fe1783     O1789   2.063       .  S
Fe1783     O1796   2.062       .  S
Fe1783     O1788   2.023       .  S
Fe1783     O1794   1.930       .  S
Fe1784     O1787   2.049       .  S
Fe1784     O1791   2.094       .  S
Fe1784     O1795   2.063       .  S
Fe1784     O1800   2.068       .  S
Fe1784     O1794   1.950       .  S
Fe1785     O1803   2.102       .  S
Fe1785     O1790   2.088       .  S
Fe1785     O1797   2.102       .  S
Fe1785     O1786   2.137       .  S
Fe1785     O1794   1.950       .  S
O1786      C1793   1.284       .  A
O1787      C1801   1.270       .  A
O1788      C1793   1.264       .  A
O1789      C1792   1.264       .  A
O1790      C1802   1.276       .  A
O1791      C1804   1.271       .  A
C1792      O1797   1.272       .  A
C1792      C3267   1.483       .  S
C1793      C3204   1.478       .  S
O1795      C1798   1.267       .  A
O1796      C1798   1.269       .  A
C1798      C2277   1.466       .  S
O1799      C1804   1.264       .  A
O1800      C1802   1.272       .  A
C1801      O1803   1.278       .  A
C1801      C2297   1.478       .  S
C1802      C2264   1.477       .  S
C1804      C2337   1.467       .  S
Fe1805     O1821   2.049       .  S
Fe1805     O1811   2.072       .  S
Fe1805     O1818   2.060       .  S
Fe1805     O1810   2.026       .  S
Fe1805     O1816   1.936       .  S
Fe1806     O1809   2.045       .  S
Fe1806     O1813   2.079       .  S
Fe1806     O1817   2.063       .  S
Fe1806     O1822   2.065       .  S
Fe1806     O1816   1.939       .  S
Fe1807     O1825   2.101       .  S
Fe1807     O1812   2.061       .  S
Fe1807     O1819   2.079       .  S
Fe1807     O1808   2.123       .  S
Fe1807     O1816   1.961       .  S
O1808      C1815   1.279       .  A
O1809      C1823   1.266       .  A
O1810      C1815   1.263       .  A
O1811      C1814   1.267       .  A
O1812      C1824   1.271       .  A
O1813      C1826   1.272       .  A
C1814      O1819   1.269       .  A
C1814      C3467   1.472       .  S
C1815      C3414   1.475       .  S
O1817      C1820   1.266       .  A
O1818      C1820   1.267       .  A
C1820      C2254   1.466       .  S
O1821      C1826   1.270       .  A
O1822      C1824   1.273       .  A
C1823      O1825   1.274       .  A
C1823      C2327   1.477       .  S
C1824      C2387   1.458       .  S
C1826      C2244   1.480       .  S
Fe1827     O1843   2.046   1_455  S
Fe1827     O1833   2.064   1_556  S
Fe1827     O1840   2.055   1_455  S
Fe1827     O1832   2.038       .  S
Fe1827     O1838   1.945   1_455  S
Fe1828     O1831   2.056       .  S
Fe1828     O1835   2.077       .  S
Fe1828     O1839   2.079       .  S
Fe1828     O1844   2.069       .  S
Fe1828     O1838   1.963       .  S
Fe1829     O1847   2.089   1_455  S
Fe1829     O1834   2.077   1_554  S
Fe1829     O1841   2.090       .  S
Fe1829     O1830   2.108       .  S
Fe1829     O1838   1.972   1_454  S
O1830      C1837   1.276   1_554  A
O1831      C1845   1.272   1_556  A
O1832      C1837   1.264       .  A
O1833      C1836   1.267       .  A
O1834      C1846   1.270       .  A
O1835      C1848   1.267       .  A
C1836      O1841   1.271       .  A
C1836      C3357   1.478   1_455  S
C1837      C3377   1.477       .  S
O1839      C1842   1.273       .  A
O1840      C1842   1.268       .  A
C1842      C3557   1.469       .  S
O1843      C1848   1.264       .  A
O1844      C1846   1.270   1_655  A
C1845      O1847   1.275       .  A
C1845      C3637   1.478       .  S
C1846      C3697   1.471       .  S
C1848      C3577   1.462       .  S
Fe1849     O1865   2.045       .  S
Fe1849     O1855   2.032       .  S
Fe1849     O1862   2.038       .  S
Fe1849     O1854   2.036       .  S
Fe1849     O1860   1.963       .  S
Fe1850     O1853   2.052       .  S
Fe1850     O1857   2.076       .  S
Fe1850     O1861   2.071       .  S
Fe1850     O1866   2.055       .  S
Fe1850     O1860   1.974       .  S
Fe1851     O1869   2.104       .  S
Fe1851     O1856   2.074       .  S
Fe1851     O1863   2.096       .  S
Fe1851     O1852   2.116       .  S
Fe1851     O1860   1.993       .  S
O1852      C1859   1.279       .  A
O1853      C1867   1.270       .  A
O1854      C1859   1.265       .  A
O1855      C1858   1.260       .  A
O1856      C1868   1.268       .  A
O1857      C1870   1.270       .  A
C1858      O1863   1.270       .  A
C1858      C3507   1.471       .  S
C1859      C3477   1.478       .  S
O1861      C1864   1.267       .  A
O1862      C1864   1.262       .  A
C1864      C2247   1.471       .  S
O1865      C1870   1.267       .  A
O1866      C1868   1.267       .  A
C1867      O1869   1.278       .  A
C1867      C2267   1.483       .  S
C1868      C2307   1.469       .  S
C1870      C2234   1.477       .  S
Fe1871     O1887   2.044       .  S
Fe1871     O1877   2.043       .  S
Fe1871     O1884   2.053       .  S
Fe1871     O1876   2.035       .  S
Fe1871     O1882   1.955       .  S
Fe1872     O1875   2.050       .  S
Fe1872     O1879   2.077       .  S
Fe1872     O1883   2.063       .  S
Fe1872     O1888   2.055       .  S
Fe1872     O1882   1.970       .  S
Fe1873     O1891   2.104       .  S
Fe1873     O1878   2.106       .  S
Fe1873     O1885   2.112       .  S
Fe1873     O1874   2.125       .  S
Fe1873     O1882   1.981       .  S
O1874      C1881   1.280       .  A
O1875      C1889   1.271       .  A
O1876      C1881   1.263       .  A
O1877      C1880   1.264       .  A
O1878      C1890   1.276       .  A
O1879      C1892   1.266       .  A
C1880      O1885   1.276       .  A
C1880      C3427   1.480       .  S
C1881      C3497   1.481       .  S
O1883      C1886   1.268       .  A
O1884      C1886   1.269       .  A
C1886      C2237   1.464       .  S
O1887      C1892   1.263       .  A
O1888      C1890   1.266       .  A
C1889      O1891   1.278       .  A
C1889      C2427   1.478       .  S
C1890      C2287   1.486       .  S
C1892      C2257   1.476       .  S
Fe1893     O1909   2.059       .  S
Fe1893     O1899   2.063       .  S
Fe1893     O1906   2.057       .  S
Fe1893     O1898   2.038       .  S
Fe1893     O1904   1.914       .  S
Fe1894     O1897   2.042       .  S
Fe1894     O1901   2.073       .  S
Fe1894     O1905   2.069       .  S
Fe1894     O1910   2.071       .  S
Fe1894     O1904   1.919       .  S
Fe1895     O1913   2.091       .  S
Fe1895     O1900   2.083       .  S
Fe1895     O1907   2.117       .  S
Fe1895     O1896   2.118       .  S
Fe1895     O1904   1.950       .  S
O1896      C1903   1.279       .  A
O1897      C1911   1.263       .  A
O1898      C1903   1.265       .  A
O1899      C1902   1.266       .  A
O1900      C1912   1.279       .  A
O1901      C1914   1.274       .  A
C1902      O1907   1.276       .  A
C1902      C4947   1.495       .  S
C1903      C4347   1.472       .  S
O1905      C1908   1.267       .  A
O1906      C1908   1.266       .  A
C1908      C4897   1.462       .  S
O1909      C1914   1.273       .  A
O1910      C1912   1.275       .  A
C1911      O1913   1.270       .  A
C1911      C3527   1.468       .  S
C1912      C2224   1.466       .  S
C1914      C4867   1.476       .  S
Fe1915     O1931   2.063       .  S
Fe1915     O1921   2.047       .  S
Fe1915     O1928   2.049       .  S
Fe1915     O1920   2.037       .  S
Fe1915     O1926   1.957       .  S
Fe1916     O1919   2.043       .  S
Fe1916     O1923   2.062       .  S
Fe1916     O1927   2.063       .  S
Fe1916     O1932   2.041       .  S
Fe1916     O1926   1.963       .  S
Fe1917     O1935   2.099       .  S
Fe1917     O1922   2.077       .  S
Fe1917     O1929   2.087       .  S
Fe1917     O1918   2.111       .  S
Fe1917     O1926   1.987       .  S
O1918      C1925   1.276       .  A
O1919      C1933   1.270       .  A
O1920      C1925   1.263       .  A
O1921      C1924   1.266       .  A
O1922      C1934   1.268       .  A
O1923      C1936   1.263       .  A
C1924      O1929   1.271       .  A
C1924      C4227   1.469       .  S
C1925      C4137   1.478       .  S
O1927      C1930   1.270       .  A
O1928      C1930   1.269       .  A
C1930      C4077   1.465       .  S
O1931      C1936   1.265       .  A
O1932      C1934   1.263       .  A
C1933      O1935   1.277       .  A
C1933      C2214   1.473       .  S
C1934      C3074   1.465       .  S
C1936      C4087   1.466       .  S
Fe1937     O1953   2.074       .  S
Fe1937     O1943   2.024       .  S
Fe1937     O1950   2.054       .  S
Fe1937     O1942   2.076       .  S
Fe1937     O1948   1.942       .  S
Fe1938     O1941   2.066       .  S
Fe1938     O1945   2.060       .  S
Fe1938     O1949   2.084       .  S
Fe1938     O1954   2.053       .  S
Fe1938     O1948   1.942       .  S
Fe1939     O1957   2.053       .  S
Fe1939     O1944   2.094       .  S
Fe1939     O1951   2.116       .  S
Fe1939     O1940   2.060       .  S
Fe1939     O1948   1.970       .  S
O1940      C1947   1.266       .  A
O1941      C1955   1.273       .  A
O1942      C1947   1.271       .  A
O1943      C1946   1.261       .  A
O1944      C1956   1.273       .  A
O1945      C1958   1.268       .  A
C1946      O1951   1.276       .  A
C1946      C2497   1.472       .  S
C1947      C2204   1.466       .  S
O1949      C1952   1.272       .  A
O1950      C1952   1.268       .  A
C1952      C3297   1.489       .  S
O1953      C1958   1.273       .  A
O1954      C1956   1.269       .  A
C1955      O1957   1.268       .  A
C1955      C4117   1.458       .  S
C1956      C3987   1.478       .  S
C1958      C2194   1.477       .  S
Fe1959     O1975   2.048       .  S
Fe1959     O1965   2.061       .  S
Fe1959     O1972   2.057       .  S
Fe1959     O1964   2.029       .  S
Fe1959     O1970   1.938       .  S
Fe1960     O1963   2.052       .  S
Fe1960     O1967   2.078       .  S
Fe1960     O1971   2.073       .  S
Fe1960     O1976   2.059       .  S
Fe1960     O1970   1.933       .  S
Fe1961     O1979   2.097       .  S
Fe1961     O1966   2.098       .  S
Fe1961     O1973   2.115       .  S
Fe1961     O1962   2.131       .  S
Fe1961     O1970   1.948       .  S
O1962      C1969   1.283       .  A
O1963      C1977   1.269       .  A
O1964      C1969   1.266       .  A
O1965      C1968   1.261       .  A
O1966      C1978   1.279       .  A
O1967      C1980   1.276       .  A
C1968      O1973   1.274       .  A
C1968      C2187   1.486       .  S
C1969      C2587   1.474       .  S
O1971      C1974   1.266       .  A
O1972      C1974   1.265       .  A
C1974      C2174   1.478       .  S
O1975      C1980   1.271       .  A
O1976      C1978   1.271       .  A
C1977      O1979   1.275       .  A
C1977      C4767   1.480       .  S
C1978      C4917   1.477       .  S
C1980      C3657   1.477       .  S
Fe1981     O1997   2.046       .  S
Fe1981     O1987   2.032       .  S
Fe1981     O1994   2.049       .  S
Fe1981     O1986   2.039       .  S
Fe1981     O1992   1.963       .  S
Fe1982     O1985   2.054       .  S
Fe1982     O1989   2.065       .  S
Fe1982     O1993   2.074       .  S
Fe1982     O1998   2.044       .  S
Fe1982     O1992   1.972       .  S
Fe1983     O2001   2.076       .  S
Fe1983     O1988   2.078       .  S
Fe1983     O1995   2.100       .  S
Fe1983     O1984   2.084       .  S
Fe1983     O1992   1.999       .  S
O1984      C1991   1.271       .  A
O1985      C1999   1.270       .  A
O1986      C1991   1.266       .  A
O1987      C1990   1.261       .  A
O1988      C2000   1.268       .  A
O1989      C2002   1.267       .  A
C1990      O1995   1.271       .  A
C1990      C3647   1.473       .  S
C1991      C2164   1.464       .  S
O1993      C1996   1.269       .  A
O1994      C1996   1.265       .  A
C1996      C2577   1.482       .  S
O1997      C2002   1.267       .  A
O1998      C2000   1.265       .  A
C1999      O2001   1.272       .  A
C1999      C2147   1.468       .  S
C2000      C2817   1.467       .  S
C2002      C2157   1.472       .  S
Fe2003     O2019   2.056       .  S
Fe2003     O2009   2.060       .  S
Fe2003     O2016   2.055   1_655  S
Fe2003     O2008   2.038   1_655  S
Fe2003     O2014   1.947   1_655  S
Fe2004     O2007   2.040   1_455  S
Fe2004     O2011   2.055       .  S
Fe2004     O2015   2.059       .  S
Fe2004     O2020   2.045       .  S
Fe2004     O2014   1.954       .  S
Fe2005     O2023   2.089       .  S
Fe2005     O2010   2.096   1_655  S
Fe2005     O2017   2.109       .  S
Fe2005     O2006   2.116       .  S
Fe2005     O2014   1.969   1_655  S
O2006      C2013   1.277       .  A
O2007      C2021   1.266       .  A
O2008      C2013   1.264   1_455  A
O2009      C2012   1.266       .  A
O2010      C2022   1.276       .  A
O2011      C2024   1.265   1_455  A
C2012      O2017   1.277       .  A
C2012      C2184   1.485       .  S
C2013      C3674   1.478   1_655  S
O2015      C2018   1.267       .  A
O2016      C2018   1.269       .  A
C2018      C2154   1.464       .  S
O2019      C2024   1.267       .  A
O2020      C2022   1.267       .  A
C2021      O2023   1.273       .  A
C2021      C2707   1.464       .  S
C2022      C2134   1.476       .  S
C2024      C2607   1.476       .  S
Fe2025     O2041   2.065       .  S
Fe2025     O2031   2.045       .  S
Fe2025     O2038   2.036       .  S
Fe2025     O2030   2.025       .  S
Fe2025     O2036   1.926       .  S
Fe2026     O2029   2.063       .  S
Fe2026     O2033   2.093       .  S
Fe2026     O2037   2.081       .  S
Fe2026     O2042   2.057       .  S
Fe2026     O2036   1.925       .  S
Fe2027     O2045   2.067       .  S
Fe2027     O2032   2.078       .  S
Fe2027     O2039   2.117       .  S
Fe2027     O2028   2.113       .  S
Fe2027     O2036   1.959       .  S
O2028      C2035   1.281       .  A
O2029      C2043   1.272       .  A
O2030      C2035   1.270       .  A
O2031      C2034   1.254       .  A
O2032      C2044   1.275       .  A
O2033      C2046   1.280       .  A
C2034      O2039   1.267       .  A
C2034      C2127   1.482       .  S
C2035      C3287   1.463       .  S
O2037      C2040   1.265       .  A
O2038      C2040   1.258       .  A
C2040      C2114   1.469       .  S
O2041      C2046   1.279       .  A
O2042      C2044   1.273       .  A
C2043      O2045   1.270       .  A
C2043      C2807   1.476       .  S
C2044      C2144   1.469       .  S
C2046      C2477   1.487       .  S
Fe2047     O2063   2.058   1_565  S
Fe2047     O2053   2.054       .  S
Fe2047     O2060   2.058   1_565  S
Fe2047     O2052   2.015       .  S
Fe2047     O2058   1.949       .  S
Fe2048     O2051   2.057       .  S
Fe2048     O2055   2.076       .  S
Fe2048     O2059   2.070       .  S
Fe2048     O2064   2.048   1_545  S
Fe2048     O2058   1.936   1_545  S
Fe2049     O2067   2.091   1_565  S
Fe2049     O2054   2.063       .  S
Fe2049     O2061   2.073       .  S
Fe2049     O2050   2.117       .  S
Fe2049     O2058   1.964       .  S
O2050      C2057   1.281       .  A
O2051      C2065   1.271       .  A
O2052      C2057   1.266       .  A
O2053      C2056   1.260       .  A
O2054      C2066   1.268       .  A
O2055      C2068   1.274       .  A
C2056      O2061   1.263       .  A
C2056      C3317   1.465   1_565  S
C2057      C2207   1.465       .  S
O2059      C2062   1.266       .  A
O2060      C2062   1.265       .  A
C2062      C2507   1.480   1_545  S
O2063      C2068   1.274       .  A
O2064      C2066   1.269       .  A
C2065      O2067   1.274       .  A
C2065      C2137   1.486       .  S
C2066      C2697   1.463       .  S
C2068      C2117   1.482       .  S
Fe2069     O2085   2.068       .  S
Fe2069     O2075   2.045       .  S
Fe2069     O2082   2.039   1_545  S
Fe2069     O2074   2.028       .  S
Fe2069     O2080   1.925       .  S
Fe2070     O2073   2.057       .  S
Fe2070     O2077   2.099       .  S
Fe2070     O2081   2.084   1_545  S
Fe2070     O2086   2.067   1_545  S
Fe2070     O2080   1.921       .  S
Fe2071     O2089   2.101       .  S
Fe2071     O2076   2.076       .  S
Fe2071     O2083   2.119       .  S
Fe2071     O2072   2.157       .  S
Fe2071     O2080   1.959       .  S
O2072      C2079   1.291       .  A
O2073      C2087   1.270       .  A
O2074      C2079   1.269       .  A
O2075      C2078   1.251       .  A
O2076      C2088   1.276       .  A
O2077      C2090   1.281       .  A
C2078      O2083   1.266       .  A
C2078      C2124   1.486       .  S
C2079      C2487   1.480       .  S
O2081      C2084   1.267       .  A
O2082      C2084   1.260       .  A
C2084      C2197   1.471       .  S
O2085      C2090   1.279       .  A
O2086      C2088   1.276   1_565  A
C2087      O2089   1.276       .  A
C2087      C3087   1.485       .  S
C2088      C2217   1.468   1_545  S
C2090      C3304   1.492       .  S
Fe2091     O2107   2.029       .  S
Fe2091     O2097   2.061       .  S
Fe2091     O2104   2.075       .  S
Fe2091     O2096   2.044   1_455  S
Fe2091     O2102   1.934       .  S
Fe2092     O2095   2.048       .  S
Fe2092     O2099   2.112       .  S
Fe2092     O2103   2.065       .  S
Fe2092     O2108   2.077   1_455  S
Fe2092     O2102   1.960       .  S
Fe2093     O2111   2.083   1_655  S
Fe2093     O2098   2.066       .  S
Fe2093     O2105   2.072       .  S
Fe2093     O2094   2.102       .  S
Fe2093     O2102   1.941   1_655  S
O2094      C2101   1.277       .  A
O2095      C2109   1.269       .  A
O2096      C2101   1.270       .  A
O2097      C2100   1.266   1_455  A
O2098      C2110   1.271       .  A
O2099      C2112   1.276       .  A
C2100      O2105   1.268       .  A
C2100      C3667   1.467       .  S
C2101      C2177   1.488       .  S
O2103      C2106   1.265       .  A
O2104      C2106   1.267       .  A
C2106      C2594   1.466       .  S
O2107      C2112   1.264       .  A
O2108      C2110   1.271       .  A
C2109      O2111   1.277       .  A
C2109      C3534   1.461       .  S
C2110      C2227   1.481       .  S
C2112      C2167   1.471       .  S
C2113      C2114   1.399       .  A
C2113      C2118   1.400       .  A
C2113      H2120   1.083       .  S
C2114      C2115   1.407       .  A
C2115      C2116   1.392       .  A
C2115      F2122   1.358       .  S
C2116      C2117   1.403       .  A
C2116      H2121   1.083       .  S
C2117      C2118   1.415       .  A
C2118      F2119   1.357       .  S
C2123      C2124   1.412       .  A
C2123      C2128   1.418       .  A
C2123      H2130   1.083       .  S
C2124      C2125   1.409       .  A
C2125      C2126   1.376       .  A
C2125      F2132   1.359       .  S
C2126      C2127   1.399       .  A
C2126      H2131   1.081       .  S
C2127      C2128   1.410       .  A
C2128      F2129   1.356       .  S
C2133      C2134   1.403       .  A
C2133      C2138   1.393       .  A
C2133      H2140   1.084       .  S
C2134      C2135   1.406       .  A
C2135      C2136   1.408       .  A
C2135      F2142   1.357       .  S
C2136      C2137   1.409       .  A
C2136      H2141   1.083       .  S
C2137      C2138   1.408       .  A
C2138      F2139   1.358       .  S
C2143      C2144   1.403       .  A
C2143      C2148   1.403       .  A
C2143      H2150   1.083       .  S
C2144      C2145   1.405       .  A
C2145      C2146   1.392       .  A
C2145      F2152   1.358       .  S
C2146      C2147   1.401       .  A
C2146      H2151   1.084       .  S
C2147      C2148   1.407       .  A
C2148      F2149   1.357       .  S
C2153      C2154   1.402       .  A
C2153      C2158   1.401       .  A
C2153      H2160   1.083       .  S
C2154      C2155   1.403       .  A
C2155      C2156   1.389       .  A
C2155      F2162   1.358       .  S
C2156      C2157   1.403       .  A
C2156      H2161   1.084       .  S
C2157      C2158   1.410       .  A
C2158      F2159   1.357       .  S
C2163      C2164   1.399       .  A
C2163      C2168   1.396       .  A
C2163      H2170   1.084       .  S
C2164      C2165   1.408       .  A
C2165      C2166   1.401       .  A
C2165      F2172   1.358       .  S
C2166      C2167   1.400       .  A
C2166      H2171   1.083       .  S
C2167      C2168   1.408       .  A
C2168      F2169   1.357       .  S
C2173      C2174   1.404       .  A
C2173      C2178   1.406       .  A
C2173      H2180   1.083       .  S
C2174      C2175   1.406       .  A
C2175      C2176   1.390       .  A
C2175      F2182   1.359       .  S
C2176      C2177   1.406       .  A
C2176      H2181   1.083       .  S
C2177      C2178   1.413       .  A
C2178      F2179   1.357       .  S
C2183      C2184   1.406       .  A
C2183      C2188   1.408       .  A
C2183      H2190   1.083       .  S
C2184      C2185   1.408       .  A
C2185      C2186   1.405       .  A
C2185      F2192   1.358       .  S
C2186      C2187   1.406       .  A
C2186      H2191   1.083       .  S
C2187      C2188   1.409       .  A
C2188      F2189   1.357       .  S
C2193      C2194   1.401       .  A
C2193      C2198   1.391       .  A
C2193      H2200   1.084       .  S
C2194      C2195   1.410       .  A
C2195      C2196   1.405       .  A
C2195      F2202   1.357       .  S
C2196      C2197   1.403       .  A
C2196      H2201   1.083       .  S
C2197      C2198   1.407       .  A
C2198      F2199   1.359       .  S
C2203      C2204   1.406       .  A
C2203      C2208   1.400       .  A
C2203      H2210   1.084       .  S
C2204      C2205   1.399       .  A
C2205      C2206   1.396       .  A
C2205      F2212   1.358       .  S
C2206      C2207   1.407       .  A
C2206      H2211   1.084       .  S
C2207      C2208   1.402       .  A
C2208      F2209   1.357       .  S
C2213      C2214   1.404       .  A
C2213      C2218   1.393       .  A
C2213      H2220   1.084       .  S
C2214      C2215   1.407       .  A
C2215      C2216   1.403       .  A
C2215      F2222   1.357       .  S
C2216      C2217   1.404       .  A
C2216      H2221   1.083   1_565  S
C2217      C2218   1.402       .  A
C2218      F2219   1.358       .  S
C2223      C2224   1.403       .  A
C2223      C2228   1.397       .  A
C2223      H2230   1.084       .  S
C2224      C2225   1.402       .  A
C2225      C2226   1.401       .  A
C2225      F2232   1.357       .  S
C2226      C2227   1.409       .  A
C2226      H2231   1.083       .  S
C2227      C2228   1.406       .  A
C2228      F2229   1.358       .  S
C2233      C2234   1.405       .  A
C2233      C2238   1.390       .  A
C2233      H2240   1.084       .  S
C2234      C2235   1.411       .  A
C2235      C2236   1.401       .  A
C2235      F2242   1.357       .  S
C2236      C2237   1.401       .  A
C2236      H2241   1.083       .  S
C2237      C2238   1.403       .  A
C2238      F2239   1.359       .  S
C2243      C2244   1.404       .  A
C2243      C2248   1.391       .  A
C2243      H2250   1.084       .  S
C2244      C2245   1.412       .  A
C2245      C2246   1.400       .  A
C2245      F2252   1.357       .  S
C2246      C2247   1.402       .  A
C2246      H2251   1.083       .  S
C2247      C2248   1.406       .  A
C2248      F2249   1.358       .  S
C2253      C2254   1.402       .  A
C2253      C2258   1.401       .  A
C2253      H2260   1.083       .  S
C2254      C2255   1.403       .  A
C2255      C2256   1.393       .  A
C2255      F2262   1.357       .  S
C2256      C2257   1.404       .  A
C2256      H2261   1.084       .  S
C2257      C2258   1.410       .  A
C2258      F2259   1.357       .  S
C2263      C2264   1.403       .  A
C2263      C2268   1.397       .  A
C2263      H2270   1.084       .  S
C2264      C2265   1.407       .  A
C2265      C2266   1.408       .  A
C2265      F2272   1.357       .  S
C2266      C2267   1.407       .  A
C2266      H2271   1.083       .  S
C2267      C2268   1.407       .  A
C2268      F2269   1.358       .  S
C2273      C2274   1.409       .  A
C2273      C2278   1.401       .  A
C2273      H2280   1.083       .  S
C2274      C2275   1.409       .  A
C2275      C2276   1.390       .  A
C2275      F2282   1.358       .  S
C2276      C2277   1.401       .  A
C2276      H2281   1.084       .  S
C2277      C2278   1.403       .  A
C2278      F2279   1.357       .  S
C2283      C2284   1.406       .  A
C2283      C2288   1.400       .  A
C2283      H2290   1.084       .  S
C2284      C2285   1.411       .  A
C2285      C2286   1.412       .  A
C2285      F2292   1.357       .  S
C2286      C2287   1.407       .  A
C2286      H2291   1.083       .  S
C2287      C2288   1.406       .  A
C2288      F2289   1.358       .  S
C2293      C2294   1.401       .  A
C2293      C2298   1.397       .  A
C2293      H2300   1.084       .  S
C2294      C2295   1.404       .  A
C2295      C2296   1.402       .  A
C2295      F2302   1.357       .  S
C2296      C2297   1.406       .  A
C2296      H2301   1.083       .  S
C2297      C2298   1.408       .  A
C2298      F2299   1.358       .  S
C2303      C2304   1.405       .  A
C2303      C2308   1.403       .  A
C2303      H2310   1.083       .  S
C2304      C2305   1.408       .  A
C2305      C2306   1.395       .  A
C2305      F2312   1.358       .  S
C2306      C2307   1.400       .  A
C2306      H2311   1.084       .  S
C2307      C2308   1.406       .  A
C2308      F2309   1.358       .  S
C2313      C2314   1.400       .  A
C2313      C2318   1.390       .  A
C2313      H2320   1.084       .  S
C2314      C2315   1.403       .  A
C2315      C2316   1.399       .  A
C2315      F2322   1.358       .  S
C2316      C2317   1.407       .  A
C2316      H2321   1.083       .  S
C2317      C2318   1.407       .  A
C2318      F2319   1.357       .  S
C2323      C2324   1.401       .  A
C2323      C2328   1.396       .  A
C2323      H2330   1.084       .  S
C2324      C2325   1.406       .  A
C2325      C2326   1.404       .  A
C2325      F2332   1.357       .  S
C2326      C2327   1.406       .  A
C2326      H2331   1.083       .  S
C2327      C2328   1.407       .  A
C2328      F2329   1.358       .  S
C2333      C2334   1.409       .  A
C2333      C2338   1.408       .  A
C2333      H2340   1.083       .  S
C2334      C2335   1.411       .  A
C2335      C2336   1.378       .  A
C2335      F2342   1.359       .  S
C2336      C2337   1.397       .  A
C2336      H2341   1.084       .  S
C2337      C2338   1.407       .  A
C2338      F2339   1.357       .  S
C2343      C2344   1.404       .  A
C2343      C2348   1.394       .  A
C2343      H2350   1.083       .  S
C2344      C2345   1.415       .  A
C2345      C2346   1.402       .  A
C2345      F2352   1.357       .  S
C2346      C2347   1.401       .  A
C2346      H2351   1.083       .  S
C2347      C2348   1.408       .  A
C2348      F2349   1.358       .  S
C2353      C2354   1.405       .  A
C2353      C2358   1.406       .  A
C2353      H2360   1.083       .  S
C2354      C2355   1.408       .  A
C2355      C2356   1.398       .  A
C2355      F2362   1.358       .  S
C2356      C2357   1.401       .  A
C2356      H2361   1.084       .  S
C2357      C2358   1.407       .  A
C2358      F2359   1.358       .  S
C2363      C2364   1.398       .  A
C2363      C2368   1.392       .  A
C2363      H2370   1.082       .  S
C2364      C2365   1.402       .  A
C2365      C2366   1.398       .  A
C2365      F2372   1.358       .  S
C2366      C2367   1.406       .  A
C2366      H2371   1.084       .  S
C2367      C2368   1.407       .  A
C2368      F2369   1.358       .  S
C2373      C2374   1.400       .  A
C2373      C2378   1.400       .  A
C2373      H2380   1.083       .  S
C2374      C2375   1.400       .  A
C2375      C2376   1.394       .  A
C2375      F2382   1.354       .  S
C2376      C2377   1.404       .  A
C2376      H2381   1.084       .  S
C2377      C2378   1.411       .  A
C2378      F2379   1.357       .  S
C2383      C2384   1.402       .  A
C2383      C2388   1.392       .  A
C2383      H2390   1.084       .  S
C2384      C2385   1.407       .  A
C2385      C2386   1.398       .  A
C2385      F2392   1.358       .  S
C2386      C2387   1.401       .  A
C2386      H2391   1.084       .  S
C2387      C2388   1.402       .  A
C2388      F2389   1.358       .  S
C2393      C2394   1.403       .  A
C2393      C2398   1.401       .  A
C2393      H2400   1.084       .  S
C2394      C2395   1.401       .  A
C2395      C2396   1.392       .  A
C2395      F2402   1.358       .  S
C2396      C2397   1.405       .  A
C2396      H2401   1.084       .  S
C2397      C2398   1.406       .  A
C2398      F2399   1.357       .  S
C2403      C2404   1.402       .  A
C2403      C2408   1.402       .  A
C2403      H2410   1.083       .  S
C2404      C2405   1.404       .  A
C2405      C2406   1.392       .  A
C2405      F2412   1.358       .  S
C2406      C2407   1.404       .  A
C2406      H2411   1.084       .  S
C2407      C2408   1.411       .  A
C2408      F2409   1.357       .  S
C2413      C2414   1.406       .  A
C2413      C2418   1.406       .  A
C2413      H2420   1.083       .  S
C2414      C2415   1.407       .  A
C2415      C2416   1.396       .  A
C2415      F2422   1.358       .  S
C2416      C2417   1.402       .  A
C2416      H2421   1.084       .  S
C2417      C2418   1.407       .  A
C2418      F2419   1.357       .  S
C2423      C2424   1.404       .  A
C2423      C2428   1.404       .  A
C2423      H2430   1.083       .  S
C2424      C2425   1.403       .  A
C2425      C2426   1.397       .  A
C2425      F2432   1.358       .  S
C2426      C2427   1.404       .  A
C2426      H2431   1.084       .  S
C2427      C2428   1.408       .  A
C2428      F2429   1.357       .  S
C2433      C2434   1.404       .  A
C2433      C2438   1.393       .  A
C2433      H2440   1.083       .  S
C2434      C2435   1.412       .  A
C2435      C2436   1.403       .  A
C2435      F2442   1.358       .  S
C2436      C2437   1.402       .  A
C2436      H2441   1.084       .  S
C2437      C2438   1.403       .  A
C2438      F2439   1.357       .  S
C2443      C2444   1.402       .  A
C2443      C2448   1.401       .  A
C2443      H2450   1.083       .  S
C2444      C2445   1.404       .  A
C2445      C2446   1.392       .  A
C2445      F2452   1.358       .  S
C2446      C2447   1.405       .  A
C2446      H2451   1.084       .  S
C2447      C2448   1.411       .  A
C2448      F2449   1.357       .  S
C2453      C2454   1.398       .  A
C2453      C2458   1.391       .  A
C2453      H2460   1.084       .  S
C2454      C2455   1.404       .  A
C2455      C2456   1.398       .  A
C2455      F2462   1.358       .  S
C2456      C2457   1.403       .  A
C2456      H2461   1.084       .  S
C2457      C2458   1.406       .  A
C2458      F2459   1.358       .  S
C2463      C2464   1.403       .  A
C2463      C2468   1.392       .  A
C2463      H2470   1.084       .  S
C2464      C2465   1.406       .  A
C2465      C2466   1.400       .  A
C2465      F2472   1.357       .  S
C2466      C2467   1.403       .  A
C2466      H2471   1.084       .  S
C2467      C2468   1.402       .  A
C2468      F2469   1.358       .  S
C2473      C2474   1.401       .  A
C2473      C2478   1.401       .  A
C2473      H2480   1.083       .  S
C2474      C2475   1.407       .  A
C2475      C2476   1.396       .  A
C2475      F2482   1.358       .  S
C2476      C2477   1.405       .  A
C2476      H2481   1.082       .  S
C2477      C2478   1.414       .  A
C2478      F2479   1.357       .  S
C2483      C2484   1.408       .  A
C2483      C2488   1.404       .  A
C2483      H2490   1.084       .  S
C2484      C2485   1.403   1_545  A
C2485      C2486   1.403   1_565  A
C2485      F2492   1.357       .  S
C2486      C2487   1.409       .  A
C2486      H2491   1.084   1_545  S
C2487      C2488   1.404       .  A
C2488      F2489   1.358       .  S
C2493      C2494   1.401       .  A
C2493      C2498   1.398       .  A
C2493      H2500   1.084       .  S
C2494      C2495   1.408       .  A
C2495      C2496   1.404       .  A
C2495      F2502   1.358       .  S
C2496      C2497   1.403       .  A
C2496      H2501   1.083       .  S
C2497      C2498   1.407       .  A
C2498      F2499   1.358       .  S
C2503      C2504   1.409   1_545  A
C2503      C2508   1.401       .  A
C2503      H2510   1.083       .  S
C2504      C2505   1.409       .  A
C2505      C2506   1.395       .  A
C2505      F2512   1.358       .  S
C2506      C2507   1.406       .  A
C2506      H2511   1.084       .  S
C2507      C2508   1.405   1_565  A
C2508      F2509   1.357       .  S
C2513      C2514   1.405       .  A
C2513      C2518   1.400       .  A
C2513      H2520   1.083       .  S
C2514      C2515   1.404       .  A
C2515      C2516   1.391       .  A
C2515      F2522   1.358       .  S
C2516      C2517   1.401       .  A
C2516      H2521   1.084       .  S
C2517      C2518   1.404       .  A
C2518      F2519   1.357       .  S
C2523      C2524   1.398       .  A
C2523      C2528   1.398       .  A
C2523      H2530   1.083       .  S
C2524      C2525   1.407       .  A
C2525      C2526   1.396       .  A
C2525      F2532   1.358       .  S
C2526      C2527   1.398       .  A
C2526      H2531   1.084       .  S
C2527      C2528   1.407       .  A
C2528      F2529   1.358       .  S
C2533      C2534   1.403       .  A
C2533      C2538   1.395       .  A
C2533      H2540   1.084       .  S
C2534      C2535   1.402       .  A
C2535      C2536   1.396       .  A
C2535      F2542   1.358       .  S
C2536      C2537   1.403       .  A
C2536      H2541   1.084       .  S
C2537      C2538   1.401       .  A
C2538      F2539   1.358       .  S
C2543      C2544   1.404       .  A
C2543      C2548   1.391       .  A
C2543      H2550   1.083       .  S
C2544      C2545   1.414       .  A
C2545      C2546   1.403       .  A
C2545      F2552   1.357       .  S
C2546      C2547   1.402       .  A
C2546      H2551   1.083       .  S
C2547      C2548   1.406       .  A
C2548      F2549   1.358       .  S
C2553      C2554   1.403       .  A
C2553      C2558   1.396       .  A
C2553      H2560   1.084       .  S
C2554      C2555   1.402       .  A
C2555      C2556   1.400       .  A
C2555      F2562   1.357       .  S
C2556      C2557   1.405       .  A
C2556      H2561   1.084       .  S
C2557      C2558   1.402       .  A
C2558      F2559   1.358       .  S
C2563      C2564   1.408       .  A
C2563      C2568   1.402       .  A
C2563      H2570   1.084       .  S
C2564      C2565   1.403       .  A
C2565      C2566   1.403       .  A
C2565      F2572   1.357       .  S
C2566      C2567   1.408       .  A
C2566      H2571   1.084       .  S
C2567      C2568   1.403       .  A
C2568      F2569   1.358       .  S
C2573      C2574   1.406       .  A
C2573      C2578   1.396       .  A
C2573      H2580   1.083       .  S
C2574      C2575   1.412       .  A
C2575      C2576   1.401       .  A
C2575      F2582   1.357       .  S
C2576      C2577   1.404       .  A
C2576      H2581   1.083       .  S
C2577      C2578   1.409       .  A
C2578      F2579   1.358       .  S
C2583      C2584   1.402       .  A
C2583      C2588   1.402       .  A
C2583      H2590   1.084       .  S
C2584      C2585   1.409       .  A
C2585      C2586   1.401       .  A
C2585      F2592   1.358       .  S
C2586      C2587   1.401       .  A
C2586      H2591   1.084       .  S
C2587      C2588   1.408       .  A
C2588      F2589   1.358       .  S
C2593      C2594   1.403   1_655  A
C2593      C2598   1.397       .  A
C2593      H2600   1.084       .  S
C2594      C2595   1.402       .  A
C2595      C2596   1.401       .  A
C2595      F2602   1.357       .  S
C2596      C2597   1.406   1_455  A
C2596      H2601   1.084       .  S
C2597      C2598   1.404       .  A
C2598      F2599   1.358       .  S
C2603      C2604   1.403       .  A
C2603      C2608   1.390       .  A
C2603      H2610   1.084       .  S
C2604      C2605   1.399   1_655  A
C2605      C2606   1.397       .  A
C2605      F2612   1.357       .  S
C2606      C2607   1.411   1_455  A
C2606      H2611   1.083       .  S
C2607      C2608   1.405       .  A
C2608      F2609   1.358       .  S
C2613      C2614   1.404       .  A
C2613      C2618   1.392       .  A
C2613      H2620   1.084       .  S
C2614      C2615   1.409       .  A
C2615      C2616   1.400       .  A
C2615      F2622   1.357       .  S
C2616      C2617   1.401       .  A
C2616      H2621   1.083       .  S
C2617      C2618   1.402       .  A
C2618      F2619   1.358       .  S
C2623      C2624   1.403       .  A
C2623      C2628   1.400       .  A
C2623      H2630   1.084       .  S
C2624      C2625   1.399       .  A
C2625      C2626   1.392       .  A
C2625      F2632   1.358       .  S
C2626      C2627   1.407       .  A
C2626      H2631   1.084       .  S
C2627      C2628   1.405       .  A
C2628      F2629   1.357       .  S
C2633      C2634   1.401       .  A
C2633      C2638   1.398       .  A
C2633      H2640   1.084       .  S
C2634      C2635   1.406       .  A
C2635      C2636   1.405       .  A
C2635      F2642   1.357       .  S
C2636      C2637   1.406       .  A
C2636      H2641   1.083       .  S
C2637      C2638   1.409       .  A
C2638      F2639   1.358       .  S
C2643      C2644   1.400       .  A
C2643      C2648   1.403       .  A
C2643      H2650   1.083       .  S
C2644      C2645   1.409   1_455  A
C2645      C2646   1.404       .  A
C2645      F2652   1.358       .  S
C2646      C2647   1.403   1_655  A
C2646      H2651   1.083       .  S
C2647      C2648   1.411       .  A
C2648      F2649   1.358       .  S
C2653      C2654   1.403       .  A
C2653      C2658   1.400       .  A
C2653      H2660   1.083       .  S
C2654      C2655   1.407       .  A
C2655      C2656   1.392       .  A
C2655      F2662   1.358       .  S
C2656      C2657   1.399       .  A
C2656      H2661   1.084       .  S
C2657      C2658   1.405       .  A
C2658      F2659   1.358       .  S
C2663      C2664   1.404       .  A
C2663      C2668   1.407       .  A
C2663      H2670   1.083       .  S
C2664      C2665   1.404       .  A
C2665      C2666   1.397       .  A
C2665      F2672   1.358       .  S
C2666      C2667   1.405       .  A
C2666      H2671   1.083       .  S
C2667      C2668   1.412       .  A
C2668      F2669   1.357       .  S
C2673      C2674   1.408       .  A
C2673      C2678   1.398       .  A
C2673      H2680   1.083       .  S
C2674      C2675   1.408       .  A
C2675      C2676   1.390       .  A
C2675      F2682   1.358       .  S
C2676      C2677   1.401       .  A
C2676      H2681   1.084       .  S
C2677      C2678   1.402       .  A
C2678      F2679   1.357       .  S
C2683      C2684   1.406       .  A
C2683      C2688   1.406       .  A
C2683      H2690   1.084       .  S
C2684      C2685   1.404   1_545  A
C2685      C2686   1.406   1_565  A
C2685      F2692   1.357       .  S
C2686      C2687   1.409       .  A
C2686      H2691   1.084   1_545  S
C2687      C2688   1.407       .  A
C2688      F2689   1.358       .  S
C2693      C2694   1.399       .  A
C2693      C2698   1.391       .  A
C2693      H2700   1.084       .  S
C2694      C2695   1.404       .  A
C2695      C2696   1.398       .  A
C2695      F2702   1.358       .  S
C2696      C2697   1.403       .  A
C2696      H2701   1.083       .  S
C2697      C2698   1.404       .  A
C2698      F2699   1.358       .  S
C2703      C2704   1.402       .  A
C2703      C2708   1.397       .  A
C2703      H2710   1.084   1_655  S
C2704      C2705   1.402       .  A
C2705      C2706   1.395       .  A
C2705      F2712   1.357       .  S
C2706      C2707   1.403       .  A
C2706      H2711   1.083       .  S
C2707      C2708   1.406       .  A
C2708      F2709   1.358   1_655  S
C2713      C2714   1.406   1_565  A
C2713      C2718   1.396       .  A
C2713      H2720   1.084       .  S
C2714      C2715   1.406       .  A
C2715      C2716   1.403       .  A
C2715      F2722   1.357       .  S
C2716      C2717   1.406       .  A
C2716      H2721   1.083       .  S
C2717      C2718   1.403   1_545  A
C2718      F2719   1.358       .  S
C2723      C2724   1.406       .  A
C2723      C2728   1.400       .  A
C2723      H2730   1.083       .  S
C2724      C2725   1.409   1_455  A
C2725      C2726   1.394       .  A
C2725      F2732   1.358       .  S
C2726      C2727   1.406   1_655  A
C2726      H2731   1.083       .  S
C2727      C2728   1.410       .  A
C2728      F2729   1.357       .  S
C2733      C2734   1.403       .  A
C2733      C2738   1.404       .  A
C2733      H2740   1.083       .  S
C2734      C2735   1.407   1_545  A
C2735      C2736   1.397       .  A
C2735      F2742   1.358       .  S
C2736      C2737   1.400   1_565  A
C2736      H2741   1.084       .  S
C2737      C2738   1.407       .  A
C2738      F2739   1.358       .  S
C2743      C2744   1.407       .  A
C2743      C2748   1.409       .  A
C2743      H2750   1.083       .  S
C2744      C2745   1.401       .  A
C2745      C2746   1.379       .  A
C2745      F2752   1.359       .  S
C2746      C2747   1.406       .  A
C2746      H2751   1.083       .  S
C2747      C2748   1.411       .  A
C2748      F2749   1.357       .  S
C2753      C2754   1.403       .  A
C2753      C2758   1.396       .  A
C2753      H2760   1.084       .  S
C2754      C2755   1.401       .  A
C2755      C2756   1.396       .  A
C2755      F2762   1.358       .  S
C2756      C2757   1.403       .  A
C2756      H2761   1.084       .  S
C2757      C2758   1.402       .  A
C2758      F2759   1.357       .  S
C2763      C2764   1.402       .  A
C2763      C2768   1.405       .  A
C2763      H2770   1.083       .  S
C2764      C2765   1.406       .  A
C2765      C2766   1.397       .  A
C2765      F2772   1.355       .  S
C2766      C2767   1.400       .  A
C2766      H2771   1.084       .  S
C2767      C2768   1.409       .  A
C2768      F2769   1.357       .  S
C2773      C2774   1.395   1_655  A
C2773      C2778   1.381   1_655  A
C2773      H2780   1.084       .  S
C2774      C2775   1.406       .  A
C2775      C2776   1.405       .  A
C2775      F2782   1.356       .  S
C2776      C2777   1.406       .  A
C2776      H2781   1.083       .  S
C2777      C2778   1.410       .  A
C2778      F2779   1.357   1_455  S
C2783      C2784   1.400       .  A
C2783      C2788   1.393       .  A
C2783      H2790   1.084       .  S
C2784      C2785   1.407       .  A
C2785      C2786   1.404       .  A
C2785      F2792   1.357       .  S
C2786      C2787   1.404       .  A
C2786      H2791   1.083       .  S
C2787      C2788   1.401       .  A
C2788      F2789   1.351       .  S
C2793      C2794   1.399       .  A
C2793      C2798   1.394       .  A
C2793      H2800   1.084       .  S
C2794      C2795   1.409   1_455  A
C2795      C2796   1.396       .  A
C2795      F2802   1.358       .  S
C2796      C2797   1.400   1_655  A
C2796      H2801   1.084       .  S
C2797      C2798   1.406       .  A
C2798      F2799   1.354       .  S
C2803      C2804   1.399       .  A
C2803      C2808   1.400       .  A
C2803      H2810   1.083       .  S
C2804      C2805   1.404       .  A
C2805      C2806   1.393       .  A
C2805      F2812   1.358       .  S
C2806      C2807   1.403       .  A
C2806      H2811   1.084       .  S
C2807      C2808   1.412       .  A
C2808      F2809   1.357       .  S
C2813      C2814   1.403       .  A
C2813      C2818   1.394       .  A
C2813      H2820   1.084       .  S
C2814      C2815   1.408       .  A
C2815      C2816   1.401       .  A
C2815      F2822   1.358       .  S
C2816      C2817   1.403       .  A
C2816      H2821   1.084       .  S
C2817      C2818   1.403       .  A
C2818      F2819   1.358       .  S
C2823      C2824   1.403       .  A
C2823      C2828   1.388       .  A
C2823      H2830   1.084       .  S
C2824      C2825   1.411       .  A
C2825      C2826   1.397       .  A
C2825      F2832   1.358       .  S
C2826      C2827   1.400       .  A
C2826      H2831   1.084       .  S
C2827      C2828   1.403       .  A
C2828      F2829   1.358       .  S
C2833      C2834   1.405       .  A
C2833      C2838   1.403       .  A
C2833      H2840   1.084       .  S
C2834      C2835   1.405       .  A
C2835      C2836   1.404       .  A
C2835      F2842   1.357       .  S
C2836      C2837   1.406       .  A
C2836      H2841   1.084       .  S
C2837      C2838   1.406       .  A
C2838      F2839   1.357       .  S
C2843      C2844   1.400       .  A
C2843      C2848   1.399       .  A
C2843      H2850   1.083       .  S
C2844      C2845   1.408       .  A
C2845      C2846   1.397       .  A
C2845      F2852   1.358       .  S
C2846      C2847   1.399       .  A
C2846      H2851   1.084       .  S
C2847      C2848   1.408       .  A
C2848      F2849   1.358       .  S
C2853      C2854   1.401       .  A
C2853      C2858   1.394       .  A
C2853      H2860   1.083       .  S
C2854      C2855   1.403       .  A
C2855      C2856   1.402       .  A
C2855      F2862   1.358       .  S
C2856      C2857   1.408       .  A
C2856      H2861   1.083       .  S
C2857      C2858   1.406       .  A
C2858      F2859   1.358       .  S
C2863      C2864   1.407       .  A
C2863      C2868   1.406       .  A
C2863      H2870   1.083       .  S
C2864      C2865   1.404       .  A
C2865      C2866   1.396       .  A
C2865      F2872   1.358       .  S
C2866      C2867   1.405       .  A
C2866      H2871   1.084       .  S
C2867      C2868   1.407       .  A
C2868      F2869   1.357       .  S
C2873      C2874   1.405       .  A
C2873      C2878   1.394       .  A
C2873      H2880   1.084       .  S
C2874      C2875   1.409       .  A
C2875      C2876   1.403       .  A
C2875      F2882   1.357       .  S
C2876      C2877   1.404       .  A
C2876      H2881   1.083   1_565  S
C2877      C2878   1.402       .  A
C2878      F2879   1.358       .  S
C2883      C2884   1.404       .  A
C2883      C2888   1.405       .  A
C2883      H2890   1.083       .  S
C2884      C2885   1.404       .  A
C2885      C2886   1.394       .  A
C2885      F2892   1.358       .  S
C2886      C2887   1.402       .  A
C2886      H2891   1.084       .  S
C2887      C2888   1.408       .  A
C2888      F2889   1.357   1_565  S
C2893      C2894   1.407       .  A
C2893      C2898   1.404       .  A
C2893      H2900   1.083       .  S
C2894      C2895   1.407       .  A
C2895      C2896   1.394       .  A
C2895      F2902   1.358       .  S
C2896      C2897   1.403       .  A
C2896      H2901   1.084       .  S
C2897      C2898   1.407       .  A
C2898      F2899   1.357       .  S
C2903      C2904   1.402       .  A
C2903      C2908   1.400       .  A
C2903      H2910   1.084       .  S
C2904      C2905   1.410   1_556  A
C2905      C2906   1.404       .  A
C2905      F2912   1.357       .  S
C2906      C2907   1.401   1_554  A
C2906      H2911   1.083       .  S
C2907      C2908   1.407       .  A
C2908      F2909   1.358       .  S
C2913      C2914   1.407       .  A
C2913      C2918   1.405       .  A
C2913      H2920   1.083       .  S
C2914      C2915   1.404       .  A
C2915      C2916   1.391       .  A
C2915      F2922   1.358       .  S
C2916      C2917   1.402       .  A
C2916      H2921   1.084       .  S
C2917      C2918   1.405       .  A
C2918      F2919   1.357       .  S
C2923      C2924   1.410       .  A
C2923      C2928   1.407       .  A
C2923      H2930   1.084       .  S
C2924      C2925   1.406   1_545  A
C2925      C2926   1.407   1_565  A
C2925      F2932   1.358       .  S
C2926      C2927   1.410       .  A
C2926      H2931   1.084   1_545  S
C2927      C2928   1.404       .  A
C2928      F2929   1.357       .  S
C2933      C2934   1.408       .  A
C2933      C2938   1.413       .  A
C2933      H2940   1.083       .  S
C2934      C2935   1.406       .  A
C2935      C2936   1.401       .  A
C2935      F2942   1.358       .  S
C2936      C2937   1.407       .  A
C2936      H2941   1.084       .  S
C2937      C2938   1.411       .  A
C2938      F2939   1.357       .  S
C2943      C2944   1.404       .  A
C2943      C2948   1.394       .  A
C2943      H2950   1.084       .  S
C2944      C2945   1.407       .  A
C2945      C2946   1.403       .  A
C2945      F2952   1.357       .  S
C2946      C2947   1.404       .  A
C2946      H2951   1.083       .  S
C2947      C2948   1.402       .  A
C2948      F2949   1.358       .  S
C2953      C2954   1.404       .  A
C2953      C2958   1.401       .  A
C2953      H2960   1.084       .  S
C2954      C2955   1.406       .  A
C2955      C2956   1.400       .  A
C2955      F2962   1.357       .  S
C2956      C2957   1.403       .  A
C2956      H2961   1.083       .  S
C2957      C2958   1.405       .  A
C2958      F2959   1.357       .  S
C2963      C2964   1.403       .  A
C2963      C2968   1.401       .  A
C2963      H2970   1.084       .  S
C2964      C2965   1.407       .  A
C2965      C2966   1.402       .  A
C2965      F2972   1.358       .  S
C2966      C2967   1.402       .  A
C2966      H2971   1.084       .  S
C2967      C2968   1.406       .  A
C2968      F2969   1.358       .  S
C2973      C2974   1.408       .  A
C2973      C2978   1.384       .  A
C2973      H2980   1.080       .  S
C2974      C2975   1.412       .  A
C2975      C2976   1.418       .  A
C2975      F2982   1.356       .  S
C2976      C2977   1.410       .  A
C2976      H2981   1.083       .  S
C2977      C2978   1.400       .  A
C2978      F2979   1.360       .  S
C2983      C2984   1.402       .  A
C2983      C2988   1.395       .  A
C2983      H2990   1.084       .  S
C2984      C2985   1.405       .  A
C2985      C2986   1.406       .  A
C2985      F2992   1.357       .  S
C2986      C2987   1.406       .  A
C2986      H2991   1.083       .  S
C2987      C2988   1.404       .  A
C2988      F2989   1.358       .  S
C2993      C2994   1.403       .  A
C2993      C2998   1.402       .  A
C2993      H3000   1.084       .  S
C2994      C2995   1.401       .  A
C2995      C2996   1.396       .  A
C2995      F3002   1.358       .  S
C2996      C2997   1.405       .  A
C2996      H3001   1.084       .  S
C2997      C2998   1.407       .  A
C2998      F2999   1.358       .  S
C3003      C3004   1.406       .  A
C3003      C3008   1.399       .  A
C3003      H3010   1.083       .  S
C3004      C3005   1.407       .  A
C3005      C3006   1.393       .  A
C3005      F3012   1.358       .  S
C3006      C3007   1.399       .  A
C3006      H3011   1.083       .  S
C3007      C3008   1.402       .  A
C3008      F3009   1.358       .  S
C3013      C3014   1.403       .  A
C3013      C3018   1.404       .  A
C3013      H3020   1.083       .  S
C3014      C3015   1.409       .  A
C3015      C3016   1.400       .  A
C3015      F3022   1.358       .  S
C3016      C3017   1.401       .  A
C3016      H3021   1.084       .  S
C3017      C3018   1.408       .  A
C3018      F3019   1.358       .  S
C3023      C3024   1.403       .  A
C3023      C3028   1.403       .  A
C3023      H3030   1.083       .  S
C3024      C3025   1.407       .  A
C3025      C3026   1.403       .  A
C3025      F3032   1.357       .  S
C3026      C3027   1.403       .  A
C3026      H3031   1.083       .  S
C3027      C3028   1.407       .  A
C3028      F3029   1.357       .  S
C3033      C3034   1.401       .  A
C3033      C3038   1.391       .  A
C3033      H3040   1.084       .  S
C3034      C3035   1.403       .  A
C3035      C3036   1.400       .  A
C3035      F3042   1.357       .  S
C3036      C3037   1.408       .  A
C3036      H3041   1.083       .  S
C3037      C3038   1.406       .  A
C3038      F3039   1.357       .  S
C3043      C3044   1.405       .  A
C3043      C3048   1.403       .  A
C3043      H3050   1.084       .  S
C3044      C3045   1.403       .  A
C3045      C3046   1.397       .  A
C3045      F3052   1.358       .  S
C3046      C3047   1.404       .  A
C3046      H3051   1.084       .  S
C3047      C3048   1.404       .  A
C3048      F3049   1.357       .  S
C3053      C3054   1.401       .  A
C3053      C3058   1.401       .  A
C3053      H3060   1.084       .  S
C3054      C3055   1.410       .  A
C3055      C3056   1.405       .  A
C3055      F3062   1.357       .  S
C3056      C3057   1.403       .  A
C3056      H3061   1.083       .  S
C3057      C3058   1.410       .  A
C3058      F3059   1.357       .  S
C3063      C3064   1.404       .  A
C3063      C3068   1.390       .  A
C3063      H3070   1.083       .  S
C3064      C3065   1.414       .  A
C3065      C3066   1.401       .  A
C3065      F3072   1.357       .  S
C3066      C3067   1.400       .  A
C3066      H3071   1.083       .  S
C3067      C3068   1.403       .  A
C3068      F3069   1.358       .  S
C3073      C3074   1.402       .  A
C3073      C3078   1.394       .  A
C3073      H3080   1.084       .  S
C3074      C3075   1.404       .  A
C3075      C3076   1.402       .  A
C3075      F3082   1.357       .  S
C3076      C3077   1.406       .  A
C3076      H3081   1.083   1_565  S
C3077      C3078   1.405       .  A
C3078      F3079   1.358       .  S
C3083      C3084   1.402       .  A
C3083      C3088   1.397       .  A
C3083      H3090   1.084       .  S
C3084      C3085   1.407       .  A
C3085      C3086   1.407       .  A
C3085      F3092   1.357       .  S
C3086      C3087   1.408       .  A
C3086      H3091   1.083       .  S
C3087      C3088   1.408       .  A
C3088      F3089   1.358       .  S
C3093      C3094   1.401       .  A
C3093      C3098   1.400       .  A
C3093      H3100   1.084   1_545  S
C3094      C3095   1.402       .  A
C3095      C3096   1.389       .  A
C3095      F3102   1.358       .  S
C3096      C3097   1.404       .  A
C3096      H3101   1.083       .  S
C3097      C3098   1.410       .  A
C3098      F3099   1.357   1_545  S
C3103      C3104   1.404       .  A
C3103      C3108   1.405       .  A
C3103      H3110   1.083       .  S
C3104      C3105   1.407       .  A
C3105      C3106   1.400       .  A
C3105      F3112   1.357       .  S
C3106      C3107   1.401       .  A
C3106      H3111   1.083       .  S
C3107      C3108   1.409       .  A
C3108      F3109   1.358       .  S
C3113      C3114   1.404       .  A
C3113      C3118   1.404       .  A
C3113      H3120   1.083       .  S
C3114      C3115   1.406       .  A
C3115      C3116   1.403       .  A
C3115      F3122   1.358       .  S
C3116      C3117   1.405       .  A
C3116      H3121   1.084       .  S
C3117      C3118   1.406       .  A
C3118      F3119   1.358       .  S
C3123      C3124   1.401       .  A
C3123      C3128   1.398       .  A
C3123      H3130   1.084       .  S
C3124      C3125   1.404       .  A
C3125      C3126   1.401       .  A
C3125      F3132   1.357       .  S
C3126      C3127   1.404       .  A
C3126      H3131   1.083       .  S
C3127      C3128   1.408       .  A
C3128      F3129   1.358       .  S
C3133      C3134   1.408   1_556  A
C3133      C3138   1.395       .  A
C3133      H3140   1.083       .  S
C3134      C3135   1.407       .  A
C3135      C3136   1.389       .  A
C3135      F3142   1.357       .  S
C3136      C3137   1.400   1_554  A
C3136      H3141   1.084       .  S
C3137      C3138   1.402       .  A
C3138      F3139   1.358       .  S
C3143      C3144   1.401   1_565  A
C3143      C3148   1.391       .  A
C3143      H3150   1.084       .  S
C3144      C3145   1.403       .  A
C3145      C3146   1.398       .  A
C3145      F3152   1.357       .  S
C3146      C3147   1.408       .  A
C3146      H3151   1.083       .  S
C3147      C3148   1.408   1_545  A
C3148      F3149   1.358       .  S
C3153      C3154   1.401   1_565  A
C3153      C3158   1.399   1_565  A
C3153      H3160   1.083       .  S
C3154      C3155   1.408       .  A
C3155      C3156   1.402       .  A
C3155      F3162   1.358       .  S
C3156      C3157   1.402       .  A
C3156      H3161   1.083       .  S
C3157      C3158   1.407       .  A
C3158      F3159   1.358   1_545  S
C3163      C3164   1.406   1_556  A
C3163      C3168   1.399       .  A
C3163      H3170   1.084       .  S
C3164      C3165   1.401       .  A
C3165      C3166   1.401       .  A
C3165      F3172   1.357       .  S
C3166      C3167   1.409   1_554  A
C3166      H3171   1.084       .  S
C3167      C3168   1.402       .  A
C3168      F3169   1.358       .  S
C3173      C3174   1.409       .  A
C3173      C3178   1.395       .  A
C3173      H3180   1.083       .  S
C3174      C3175   1.406       .  A
C3175      C3176   1.394       .  A
C3175      F3182   1.358   1_556  S
C3176      C3177   1.408       .  A
C3176      H3181   1.083   1_556  S
C3177      C3178   1.406       .  A
C3178      F3179   1.358       .  S
C3183      C3184   1.401       .  A
C3183      C3188   1.401       .  A
C3183      H3190   1.083       .  S
C3184      C3185   1.407       .  A
C3185      C3186   1.401       .  A
C3185      F3192   1.358       .  S
C3186      C3187   1.402       .  A
C3186      H3191   1.083       .  S
C3187      C3188   1.407       .  A
C3188      F3189   1.358       .  S
C3193      C3194   1.403       .  A
C3193      C3198   1.407       .  A
C3193      H3200   1.083       .  S
C3194      C3195   1.410       .  A
C3195      C3196   1.404       .  A
C3195      F3202   1.358       .  S
C3196      C3197   1.403       .  A
C3196      H3201   1.084       .  S
C3197      C3198   1.411       .  A
C3198      F3199   1.358       .  S
C3203      C3204   1.408       .  A
C3203      C3208   1.402       .  A
C3203      H3210   1.084       .  S
C3204      C3205   1.405       .  A
C3205      C3206   1.404       .  A
C3205      F3212   1.358       .  S
C3206      C3207   1.407       .  A
C3206      H3211   1.084       .  S
C3207      C3208   1.403       .  A
C3208      F3209   1.358       .  S
C3213      C3214   1.406       .  A
C3213      C3218   1.403       .  A
C3213      H3220   1.084       .  S
C3214      C3215   1.406       .  A
C3215      C3216   1.407       .  A
C3215      F3222   1.357       .  S
C3216      C3217   1.407       .  A
C3216      H3221   1.083       .  S
C3217      C3218   1.406       .  A
C3218      F3219   1.358       .  S
C3223      C3224   1.406       .  A
C3223      C3228   1.398       .  A
C3223      H3230   1.083       .  S
C3224      C3225   1.404       .  A
C3225      C3226   1.390       .  A
C3225      F3232   1.358       .  S
C3226      C3227   1.400       .  A
C3226      H3231   1.084       .  S
C3227      C3228   1.402       .  A
C3228      F3229   1.358       .  S
C3233      C3234   1.401       .  A
C3233      C3238   1.402       .  A
C3233      H3240   1.083       .  S
C3234      C3235   1.409       .  A
C3235      C3236   1.401       .  A
C3235      F3242   1.358       .  S
C3236      C3237   1.401       .  A
C3236      H3241   1.083       .  S
C3237      C3238   1.411       .  A
C3238      F3239   1.358       .  S
C3243      C3244   1.403       .  A
C3243      C3248   1.393       .  A
C3243      H3250   1.084       .  S
C3244      C3245   1.402       .  A
C3245      C3246   1.401       .  A
C3245      F3252   1.357       .  S
C3246      C3247   1.412       .  A
C3246      H3251   1.083       .  S
C3247      C3248   1.408       .  A
C3248      F3249   1.358       .  S
C3253      C3254   1.405       .  A
C3253      C3258   1.389       .  A
C3253      H3260   1.083       .  S
C3254      C3255   1.412       .  A
C3255      C3256   1.399       .  A
C3255      F3262   1.357       .  S
C3256      C3257   1.401       .  A
C3256      H3261   1.083       .  S
C3257      C3258   1.403       .  A
C3258      F3259   1.358       .  S
C3263      C3264   1.405       .  A
C3263      C3268   1.405       .  A
C3263      H3270   1.084       .  S
C3264      C3265   1.408       .  A
C3265      C3266   1.406       .  A
C3265      F3272   1.358       .  S
C3266      C3267   1.405       .  A
C3266      H3271   1.083       .  S
C3267      C3268   1.408       .  A
C3268      F3269   1.358       .  S
C3273      C3274   1.405       .  A
C3273      C3278   1.395       .  A
C3273      H3280   1.084       .  S
C3274      C3275   1.408       .  A
C3275      C3276   1.404       .  A
C3275      F3282   1.357       .  S
C3276      C3277   1.404       .  A
C3276      H3281   1.083   1_565  S
C3277      C3278   1.403       .  A
C3278      F3279   1.358       .  S
C3283      C3284   1.399       .  A
C3283      C3288   1.395       .  A
C3283      H3290   1.084       .  S
C3284      C3285   1.407       .  A
C3285      C3286   1.398       .  A
C3285      F3292   1.358       .  S
C3286      C3287   1.399       .  A
C3286      H3291   1.084       .  S
C3287      C3288   1.407       .  A
C3288      F3289   1.358       .  S
C3293      C3294   1.407       .  A
C3293      C3298   1.400       .  A
C3293      H3300   1.083       .  S
C3294      C3295   1.411       .  A
C3295      C3296   1.398       .  A
C3295      F3302   1.358       .  S
C3296      C3297   1.407       .  A
C3296      H3301   1.083       .  S
C3297      C3298   1.410       .  A
C3298      F3299   1.357       .  S
C3303      C3304   1.405       .  A
C3303      C3308   1.398       .  A
C3303      H3310   1.083       .  S
C3304      C3305   1.414       .  A
C3305      C3306   1.403       .  A
C3305      F3312   1.357       .  S
C3306      C3307   1.404       .  A
C3306      H3311   1.083       .  S
C3307      C3308   1.411       .  A
C3308      F3309   1.358       .  S
C3313      C3314   1.401       .  A
C3313      C3318   1.398       .  A
C3313      H3320   1.083       .  S
C3314      C3315   1.406       .  A
C3315      C3316   1.398   1_545  A
C3315      F3322   1.358   1_545  S
C3316      C3317   1.402   1_565  A
C3316      H3321   1.084       .  S
C3317      C3318   1.406       .  A
C3318      F3319   1.358       .  S
C3323      C3324   1.402       .  A
C3323      C3328   1.394       .  A
C3323      H3330   1.083       .  S
C3324      C3325   1.413       .  A
C3325      C3326   1.401       .  A
C3325      F3332   1.357   1_565  S
C3326      C3327   1.399       .  A
C3326      H3331   1.083       .  S
C3327      C3328   1.406       .  A
C3328      F3329   1.358       .  S
C3333      C3334   1.407       .  A
C3333      C3338   1.404       .  A
C3333      H3340   1.083       .  S
C3334      C3335   1.401       .  A
C3335      C3336   1.394       .  A
C3335      F3342   1.358       .  S
C3336      C3337   1.408       .  A
C3336      H3341   1.084       .  S
C3337      C3338   1.405       .  A
C3338      F3339   1.357       .  S
C3343      C3344   1.401       .  A
C3343      C3348   1.403       .  A
C3343      H3350   1.083       .  S
C3344      C3345   1.406       .  A
C3345      C3346   1.395       .  A
C3345      F3352   1.358       .  S
C3346      C3347   1.402       .  A
C3346      H3351   1.084       .  S
C3347      C3348   1.411       .  A
C3348      F3349   1.357       .  S
C3353      C3354   1.404       .  A
C3353      C3358   1.402       .  A
C3353      H3360   1.084       .  S
C3354      C3355   1.408   1_655  A
C3355      C3356   1.405       .  A
C3355      F3362   1.357       .  S
C3356      C3357   1.403   1_455  A
C3356      H3361   1.083       .  S
C3357      C3358   1.406       .  A
C3358      F3359   1.358       .  S
C3363      C3364   1.402       .  A
C3363      C3368   1.390       .  A
C3363      H3370   1.084       .  S
C3364      C3365   1.401       .  A
C3365      C3366   1.396       .  A
C3365      F3372   1.357       .  S
C3366      C3367   1.408       .  A
C3366      H3371   1.083       .  S
C3367      C3368   1.406       .  A
C3368      F3369   1.358       .  S
C3373      C3374   1.408   1_554  A
C3373      C3378   1.403       .  A
C3373      H3380   1.084       .  S
C3374      C3375   1.403       .  A
C3375      C3376   1.400       .  A
C3375      F3382   1.358       .  S
C3376      C3377   1.406       .  A
C3376      H3381   1.083       .  S
C3377      C3378   1.403   1_556  A
C3378      F3379   1.357       .  S
C3383      C3384   1.405       .  A
C3383      C3388   1.403       .  A
C3383      H3390   1.084       .  S
C3384      C3385   1.402       .  A
C3385      C3386   1.395       .  A
C3385      F3392   1.358       .  S
C3386      C3387   1.404       .  A
C3386      H3391   1.084       .  S
C3387      C3388   1.406       .  A
C3388      F3389   1.357       .  S
C3393      C3394   1.401       .  A
C3393      C3398   1.392       .  A
C3393      H3400   1.084       .  S
C3394      C3395   1.409       .  A
C3395      C3396   1.404       .  A
C3395      F3402   1.357       .  S
C3396      C3397   1.403       .  A
C3396      H3401   1.083       .  S
C3397      C3398   1.407       .  A
C3398      F3399   1.358       .  S
C3403      C3404   1.404       .  A
C3403      C3408   1.394       .  A
C3403      H3410   1.084       .  S
C3404      C3405   1.405       .  A
C3405      C3406   1.402       .  A
C3405      F3412   1.357       .  S
C3406      C3407   1.406       .  A
C3406      H3411   1.084       .  S
C3407      C3408   1.403       .  A
C3408      F3409   1.358       .  S
C3413      C3414   1.401       .  A
C3413      C3418   1.402       .  A
C3413      H3420   1.083       .  S
C3414      C3415   1.410       .  A
C3415      C3416   1.400       .  A
C3415      F3422   1.358       .  S
C3416      C3417   1.399       .  A
C3416      H3421   1.083       .  S
C3417      C3418   1.409       .  A
C3418      F3419   1.358       .  S
C3423      C3424   1.404       .  A
C3423      C3428   1.407       .  A
C3423      H3430   1.083       .  S
C3424      C3425   1.408       .  A
C3425      C3426   1.403       .  A
C3425      F3432   1.358       .  S
C3426      C3427   1.403       .  A
C3426      H3431   1.084       .  S
C3427      C3428   1.409       .  A
C3428      F3429   1.357       .  S
C3433      C3434   1.406       .  A
C3433      C3438   1.400       .  A
C3433      H3440   1.083       .  S
C3434      C3435   1.408       .  A
C3435      C3436   1.395       .  A
C3435      F3442   1.358       .  S
C3436      C3437   1.400       .  A
C3436      H3441   1.084       .  S
C3437      C3438   1.403       .  A
C3438      F3439   1.357   1_554  S
C3443      C3444   1.403       .  A
C3443      C3448   1.400       .  A
C3443      H3450   1.084   1_554  S
C3444      C3445   1.406       .  A
C3445      C3446   1.403       .  A
C3445      F3452   1.357       .  S
C3446      C3447   1.403       .  A
C3446      H3451   1.083       .  S
C3447      C3448   1.406       .  A
C3448      F3449   1.358       .  S
C3453      C3454   1.407       .  A
C3453      C3458   1.394       .  A
C3453      H3460   1.083       .  S
C3454      C3455   1.410       .  A
C3455      C3456   1.398       .  A
C3455      F3462   1.357       .  S
C3456      C3457   1.404       .  A
C3456      H3461   1.083       .  S
C3457      C3458   1.406       .  A
C3458      F3459   1.358       .  S
C3463      C3464   1.402       .  A
C3463      C3468   1.400       .  A
C3463      H3470   1.083       .  S
C3464      C3465   1.408       .  A
C3465      C3466   1.402       .  A
C3465      F3472   1.358       .  S
C3466      C3467   1.402       .  A
C3466      H3471   1.083       .  S
C3467      C3468   1.406       .  A
C3468      F3469   1.358       .  S
C3473      C3474   1.402       .  A
C3473      C3478   1.403       .  A
C3473      H3480   1.084       .  S
C3474      C3475   1.410       .  A
C3475      C3476   1.404       .  A
C3475      F3482   1.357       .  S
C3476      C3477   1.402       .  A
C3476      H3481   1.083       .  S
C3477      C3478   1.409       .  A
C3478      F3479   1.358       .  S
C3483      C3484   1.402       .  A
C3483      C3488   1.390       .  A
C3483      H3490   1.084       .  S
C3484      C3485   1.413       .  A
C3485      C3486   1.400       .  A
C3485      F3492   1.357       .  S
C3486      C3487   1.399       .  A
C3486      H3491   1.083       .  S
C3487      C3488   1.403       .  A
C3488      F3489   1.357       .  S
C3493      C3494   1.407       .  A
C3493      C3498   1.402       .  A
C3493      H3500   1.084       .  S
C3494      C3495   1.407       .  A
C3495      C3496   1.409       .  A
C3495      F3502   1.357       .  S
C3496      C3497   1.408       .  A
C3496      H3501   1.083       .  S
C3497      C3498   1.405       .  A
C3498      F3499   1.358       .  S
C3503      C3504   1.402       .  A
C3503      C3508   1.401       .  A
C3503      H3510   1.084       .  S
C3504      C3505   1.406       .  A
C3505      C3506   1.402       .  A
C3505      F3512   1.358       .  S
C3506      C3507   1.403       .  A
C3506      H3511   1.084       .  S
C3507      C3508   1.407       .  A
C3508      F3509   1.358       .  S
C3513      C3514   1.402       .  A
C3513      C3518   1.393       .  A
C3513      H3520   1.084       .  S
C3514      C3515   1.403       .  A
C3515      C3516   1.396       .  A
C3515      F3522   1.357       .  S
C3516      C3517   1.401       .  A
C3516      H3521   1.084       .  S
C3517      C3518   1.402       .  A
C3518      F3519   1.358       .  S
C3523      C3524   1.399       .  A
C3523      C3528   1.394       .  A
C3523      H3530   1.084       .  S
C3524      C3525   1.404       .  A
C3525      C3526   1.399       .  A
C3525      F3532   1.358       .  S
C3526      C3527   1.404       .  A
C3526      H3531   1.084       .  S
C3527      C3528   1.406       .  A
C3528      F3529   1.358       .  S
C3533      C3534   1.398       .  A
C3533      C3538   1.392       .  A
C3533      H3540   1.084       .  S
C3534      C3535   1.405       .  A
C3535      C3536   1.399       .  A
C3535      F3542   1.358       .  S
C3536      C3537   1.402       .  A
C3536      H3541   1.083       .  S
C3537      C3538   1.407       .  A
C3538      F3539   1.358       .  S
C3543      C3544   1.403       .  A
C3543      C3548   1.396       .  A
C3543      H3550   1.084       .  S
C3544      C3545   1.402       .  A
C3545      C3546   1.397       .  A
C3545      F3552   1.358       .  S
C3546      C3547   1.404       .  A
C3546      H3551   1.084       .  S
C3547      C3548   1.402       .  A
C3548      F3549   1.358       .  S
C3553      C3554   1.404   1_455  A
C3553      C3558   1.395       .  A
C3553      H3560   1.084       .  S
C3554      C3555   1.410       .  A
C3555      C3556   1.403       .  A
C3555      F3562   1.357       .  S
C3556      C3557   1.404       .  A
C3556      H3561   1.084       .  S
C3557      C3558   1.404   1_655  A
C3558      F3559   1.357       .  S
C3563      C3564   1.410       .  A
C3563      C3568   1.396       .  A
C3563      H3570   1.083       .  S
C3564      C3565   1.407       .  A
C3565      C3566   1.393       .  A
C3565      F3572   1.358       .  S
C3566      C3567   1.402       .  A
C3566      H3571   1.084       .  S
C3567      C3568   1.401       .  A
C3568      F3569   1.358       .  S
C3573      C3574   1.402       .  A
C3573      C3578   1.385       .  A
C3573      H3580   1.084       .  S
C3574      C3575   1.409       .  A
C3575      C3576   1.407       .  A
C3575      F3582   1.357       .  S
C3576      C3577   1.404       .  A
C3576      H3581   1.083       .  S
C3577      C3578   1.400       .  A
C3578      F3579   1.359       .  S
C3583      C3584   1.403       .  A
C3583      C3588   1.394       .  A
C3583      H3590   1.084       .  S
C3584      C3585   1.401       .  A
C3585      C3586   1.396       .  A
C3585      F3592   1.358       .  S
C3586      C3587   1.404       .  A
C3586      H3591   1.084       .  S
C3587      C3588   1.401       .  A
C3588      F3589   1.358       .  S
C3593      C3594   1.403       .  A
C3593      C3598   1.394       .  A
C3593      H3600   1.084       .  S
C3594      C3595   1.403       .  A
C3595      C3596   1.404       .  A
C3595      F3602   1.357   1_556  S
C3596      C3597   1.411       .  A
C3596      H3601   1.083   1_556  S
C3597      C3598   1.409       .  A
C3598      F3599   1.358       .  S
C3603      C3604   1.407   1_455  A
C3603      C3608   1.399       .  A
C3603      H3610   1.084       .  S
C3604      C3605   1.402       .  A
C3605      C3606   1.402       .  A
C3605      F3612   1.357       .  S
C3606      C3607   1.408   1_655  A
C3606      H3611   1.084       .  S
C3607      C3608   1.401       .  A
C3608      F3609   1.358       .  S
C3613      C3614   1.403   1_554  A
C3613      C3618   1.397       .  A
C3613      H3620   1.084       .  S
C3614      C3615   1.403       .  A
C3615      C3616   1.400       .  A
C3615      F3622   1.357       .  S
C3616      C3617   1.405       .  A
C3616      H3621   1.084       .  S
C3617      C3618   1.402   1_556  A
C3618      F3619   1.358       .  S
C3623      C3624   1.403       .  A
C3623      C3628   1.393       .  A
C3623      H3630   1.084       .  S
C3624      C3625   1.404   1_655  A
C3625      C3626   1.405       .  A
C3625      F3632   1.357       .  S
C3626      C3627   1.411   1_455  A
C3626      H3631   1.083       .  S
C3627      C3628   1.410       .  A
C3628      F3629   1.358       .  S
C3633      C3634   1.402       .  A
C3633      C3638   1.394       .  A
C3633      H3640   1.084       .  S
C3634      C3635   1.402       .  A
C3635      C3636   1.401       .  A
C3635      F3642   1.357       .  S
C3636      C3637   1.408       .  A
C3636      H3641   1.083       .  S
C3637      C3638   1.407       .  A
C3638      F3639   1.358       .  S
C3643      C3644   1.405       .  A
C3643      C3648   1.402       .  A
C3643      H3650   1.084       .  S
C3644      C3645   1.404       .  A
C3645      C3646   1.401       .  A
C3645      F3652   1.358       .  S
C3646      C3647   1.405       .  A
C3646      H3651   1.084       .  S
C3647      C3648   1.404       .  A
C3648      F3649   1.357       .  S
C3653      C3654   1.403       .  A
C3653      C3658   1.392       .  A
C3653      H3660   1.084       .  S
C3654      C3655   1.402       .  A
C3655      C3656   1.395       .  A
C3655      F3662   1.357       .  S
C3656      C3657   1.408       .  A
C3656      H3661   1.083       .  S
C3657      C3658   1.408       .  A
C3658      F3659   1.358       .  S
C3663      C3664   1.403   1_455  A
C3663      C3668   1.397       .  A
C3663      H3670   1.084       .  S
C3664      C3665   1.408       .  A
C3665      C3666   1.401       .  A
C3665      F3672   1.358       .  S
C3666      C3667   1.402       .  A
C3666      H3671   1.084       .  S
C3667      C3668   1.403   1_655  A
C3668      F3669   1.356       .  S
C3673      C3674   1.401   1_655  A
C3673      C3678   1.404       .  A
C3673      H3680   1.083       .  S
C3674      C3675   1.409       .  A
C3675      C3676   1.403       .  A
C3675      F3682   1.358       .  S
C3676      C3677   1.402       .  A
C3676      H3681   1.084       .  S
C3677      C3678   1.410   1_455  A
C3678      F3679   1.358       .  S
C3683      C3684   1.405       .  A
C3683      C3688   1.404       .  A
C3683      H3690   1.083       .  S
C3684      C3685   1.403       .  A
C3685      C3686   1.395       .  A
C3685      F3692   1.358       .  S
C3686      C3687   1.404       .  A
C3686      H3691   1.084       .  S
C3687      C3688   1.407       .  A
C3688      F3689   1.357       .  S
C3693      C3694   1.405       .  A
C3693      C3698   1.405       .  A
C3693      H3700   1.083       .  S
C3694      C3695   1.404       .  A
C3695      C3696   1.396       .  A
C3695      F3702   1.358   1_455  S
C3696      C3697   1.402       .  A
C3696      H3701   1.084   1_455  S
C3697      C3698   1.405       .  A
C3698      F3699   1.357       .  S
C3703      C3704   1.411       .  A
C3703      C3708   1.423       .  A
C3703      H3710   1.082   1_556  S
C3704      C3705   1.400       .  A
C3705      C3706   1.382       .  A
C3705      F3712   1.338       .  S
C3706      C3707   1.395       .  A
C3706      H3711   1.085       .  S
C3707      C3708   1.415       .  A
C3708      F3709   1.356       .  S
C3713      C3714   1.398       .  A
C3713      C3718   1.400       .  A
C3713      H3720   1.083       .  S
C3714      C3715   1.408   1_556  A
C3715      C3716   1.391       .  A
C3715      F3722   1.358       .  S
C3716      C3717   1.402   1_554  A
C3716      H3721   1.083       .  S
C3717      C3718   1.415       .  A
C3718      F3719   1.357       .  S
C3723      C3724   1.403       .  A
C3723      C3728   1.396       .  A
C3723      H3730   1.084       .  S
C3724      C3725   1.406       .  A
C3725      C3726   1.407       .  A
C3725      F3732   1.357       .  S
C3726      C3727   1.407       .  A
C3726      H3731   1.083       .  S
C3727      C3728   1.406       .  A
C3728      F3729   1.358       .  S
C3733      C3734   1.399       .  A
C3733      C3738   1.398       .  A
C3733      H3740   1.084       .  S
C3734      C3735   1.407   1_655  A
C3735      C3736   1.399       .  A
C3735      F3742   1.358       .  S
C3736      C3737   1.400       .  A
C3736      H3741   1.084       .  S
C3737      C3738   1.408   1_455  A
C3738      F3739   1.358       .  S
C3743      C3744   1.404   1_655  A
C3743      C3748   1.404       .  A
C3743      H3750   1.083       .  S
C3744      C3745   1.404       .  A
C3745      C3746   1.395       .  A
C3745      F3752   1.358       .  S
C3746      C3747   1.407       .  A
C3746      H3751   1.083       .  S
C3747      C3748   1.412   1_455  A
C3748      F3749   1.357       .  S
C3753      C3754   1.402       .  A
C3753      C3758   1.391       .  A
C3753      H3760   1.084       .  S
C3754      C3755   1.402       .  A
C3755      C3756   1.395       .  A
C3755      F3762   1.358       .  S
C3756      C3757   1.404       .  A
C3756      H3761   1.084       .  S
C3757      C3758   1.402       .  A
C3758      F3759   1.358       .  S
C3763      C3764   1.404       .  A
C3763      C3768   1.393       .  A
C3763      H3770   1.084       .  S
C3764      C3765   1.407       .  A
C3765      C3766   1.402       .  A
C3765      F3772   1.357       .  S
C3766      C3767   1.403       .  A
C3766      H3771   1.083       .  S
C3767      C3768   1.403       .  A
C3768      F3769   1.358       .  S
C3773      C3774   1.407       .  A
C3773      C3778   1.400       .  A
C3773      H3780   1.084       .  S
C3774      C3775   1.401       .  A
C3775      C3776   1.399       .  A
C3775      F3782   1.357       .  S
C3776      C3777   1.408       .  A
C3776      H3781   1.084       .  S
C3777      C3778   1.401       .  A
C3778      F3779   1.358       .  S
C3783      C3784   1.405       .  A
C3783      C3788   1.399       .  A
C3783      H3790   1.084       .  S
C3784      C3785   1.401       .  A
C3785      C3786   1.399       .  A
C3785      F3792   1.357       .  S
C3786      C3787   1.405       .  A
C3786      H3791   1.084       .  S
C3787      C3788   1.402       .  A
C3788      F3789   1.358       .  S
C3793      C3794   1.405       .  A
C3793      C3798   1.392       .  A
C3793      H3800   1.084       .  S
C3794      C3795   1.404       .  A
C3795      C3796   1.403       .  A
C3795      F3802   1.357       .  S
C3796      C3797   1.411       .  A
C3796      H3801   1.083       .  S
C3797      C3798   1.408       .  A
C3798      F3799   1.358       .  S
C3803      C3804   1.405       .  A
C3803      C3808   1.392       .  A
C3803      H3810   1.084       .  S
C3804      C3805   1.411       .  A
C3805      C3806   1.397       .  A
C3805      F3812   1.357       .  S
C3806      C3807   1.402       .  A
C3806      H3811   1.083       .  S
C3807      C3808   1.407       .  A
C3808      F3809   1.358       .  S
C3813      C3814   1.404       .  A
C3813      C3818   1.400       .  A
C3813      H3820   1.084       .  S
C3814      C3815   1.405       .  A
C3815      C3816   1.402       .  A
C3815      F3822   1.357       .  S
C3816      C3817   1.406       .  A
C3816      H3821   1.084   1_554  S
C3817      C3818   1.406       .  A
C3818      F3819   1.357       .  S
C3823      C3824   1.405       .  A
C3823      C3828   1.406       .  A
C3823      H3830   1.083       .  S
C3824      C3825   1.408   1_655  A
C3825      C3826   1.405       .  A
C3825      F3832   1.358       .  S
C3826      C3827   1.405       .  A
C3826      H3831   1.083       .  S
C3827      C3828   1.408   1_455  A
C3828      F3829   1.358       .  S
C3833      C3834   1.401       .  A
C3833      C3838   1.393       .  A
C3833      H3840   1.084       .  S
C3834      C3835   1.402   1_655  A
C3835      C3836   1.402       .  A
C3835      F3842   1.357       .  S
C3836      C3837   1.410   1_455  A
C3836      H3841   1.083       .  S
C3837      C3838   1.409       .  A
C3838      F3839   1.358       .  S
C3843      C3844   1.404       .  A
C3843      C3848   1.397       .  A
C3843      H3850   1.084       .  S
C3844      C3845   1.410       .  A
C3845      C3846   1.408   1_554  A
C3845      F3852   1.357       .  S
C3846      C3847   1.407   1_556  A
C3846      H3851   1.083       .  S
C3847      C3848   1.407       .  A
C3848      F3849   1.358       .  S
C3853      C3854   1.402       .  A
C3853      C3858   1.402       .  A
C3853      H3860   1.083       .  S
C3854      C3855   1.406       .  A
C3855      C3856   1.395       .  A
C3855      F3862   1.358       .  S
C3856      C3857   1.399       .  A
C3856      H3861   1.084       .  S
C3857      C3858   1.407       .  A
C3858      F3859   1.358       .  S
C3863      C3864   1.408       .  A
C3863      C3868   1.408       .  A
C3863      H3870   1.083       .  S
C3864      C3865   1.403       .  A
C3865      C3866   1.398       .  A
C3865      F3872   1.358       .  S
C3866      C3867   1.407       .  A
C3866      H3871   1.084       .  S
C3867      C3868   1.406       .  A
C3868      F3869   1.357   1_556  S
C3873      C3874   1.401       .  A
C3873      C3878   1.392       .  A
C3873      H3880   1.084       .  S
C3874      C3875   1.407       .  A
C3875      C3876   1.403       .  A
C3875      F3882   1.357   1_556  S
C3876      C3877   1.404       .  A
C3876      H3881   1.083   1_556  S
C3877      C3878   1.404       .  A
C3878      F3879   1.358       .  S
C3883      C3884   1.404       .  A
C3883      C3888   1.391       .  A
C3883      H3890   1.084       .  S
C3884      C3885   1.409       .  A
C3885      C3886   1.401       .  A
C3885      F3892   1.357       .  S
C3886      C3887   1.402       .  A
C3886      H3891   1.083       .  S
C3887      C3888   1.403       .  A
C3888      F3889   1.358       .  S
C3893      C3894   1.401       .  A
C3893      C3898   1.402       .  A
C3893      H3900   1.083       .  S
C3894      C3895   1.405       .  A
C3895      C3896   1.399       .  A
C3895      F3902   1.357       .  S
C3896      C3897   1.402       .  A
C3896      H3901   1.084       .  S
C3897      C3898   1.408       .  A
C3898      F3899   1.357       .  S
C3903      C3904   1.405       .  A
C3903      C3908   1.396       .  A
C3903      H3910   1.083       .  S
C3904      C3905   1.409       .  A
C3905      C3906   1.394       .  A
C3905      F3912   1.358       .  S
C3906      C3907   1.404       .  A
C3906      H3911   1.084       .  S
C3907      C3908   1.409       .  A
C3908      F3909   1.358       .  S
C3913      C3914   1.405       .  A
C3913      C3918   1.402       .  A
C3913      H3920   1.084       .  S
C3914      C3915   1.403       .  A
C3915      C3916   1.400       .  A
C3915      F3922   1.357       .  S
C3916      C3917   1.405       .  A
C3916      H3921   1.084       .  S
C3917      C3918   1.404       .  A
C3918      F3919   1.357       .  S
C3923      C3924   1.408       .  A
C3923      C3928   1.400       .  A
C3923      H3930   1.084       .  S
C3924      C3925   1.403       .  A
C3925      C3926   1.400       .  A
C3925      F3932   1.358       .  S
C3926      C3927   1.407       .  A
C3926      H3931   1.084       .  S
C3927      C3928   1.402       .  A
C3928      F3929   1.358       .  S
C3933      C3934   1.402       .  A
C3933      C3938   1.402       .  A
C3933      H3940   1.083       .  S
C3934      C3935   1.403       .  A
C3935      C3936   1.392       .  A
C3935      F3942   1.358       .  S
C3936      C3937   1.403       .  A
C3936      H3941   1.084       .  S
C3937      C3938   1.410       .  A
C3938      F3939   1.358       .  S
C3943      C3944   1.409       .  A
C3943      C3948   1.404       .  A
C3943      H3950   1.084       .  S
C3944      C3945   1.406       .  A
C3945      C3946   1.407       .  A
C3945      F3952   1.357       .  S
C3946      C3947   1.409       .  A
C3946      H3951   1.083       .  S
C3947      C3948   1.405       .  A
C3948      F3949   1.358       .  S
C3953      C3954   1.410       .  A
C3953      C3958   1.397       .  A
C3953      H3960   1.083       .  S
C3954      C3955   1.407       .  A
C3955      C3956   1.389       .  A
C3955      F3962   1.358       .  S
C3956      C3957   1.403       .  A
C3956      H3961   1.084       .  S
C3957      C3958   1.400       .  A
C3958      F3959   1.357       .  S
C3963      C3964   1.403       .  A
C3963      C3968   1.405       .  A
C3963      H3970   1.084       .  S
C3964      C3965   1.397       .  A
C3965      C3966   1.383       .  A
C3965      F3972   1.359       .  S
C3966      C3967   1.402       .  A
C3966      H3971   1.080       .  S
C3967      C3968   1.413       .  A
C3968      F3969   1.357       .  S
C3973      C3974   1.408       .  A
C3973      C3978   1.409       .  A
C3973      H3980   1.083       .  S
C3974      C3975   1.404       .  A
C3975      C3976   1.401       .  A
C3975      F3982   1.358       .  S
C3976      C3977   1.407       .  A
C3976      H3981   1.084       .  S
C3977      C3978   1.407       .  A
C3978      F3979   1.357       .  S
C3983      C3984   1.406       .  A
C3983      C3988   1.395       .  A
C3983      H3990   1.084       .  S
C3984      C3985   1.408       .  A
C3985      C3986   1.405       .  A
C3985      F3992   1.357       .  S
C3986      C3987   1.406       .  A
C3986      H3991   1.083       .  S
C3987      C3988   1.404       .  A
C3988      F3989   1.358       .  S
C3993      C3994   1.409       .  A
C3993      C3998   1.408       .  A
C3993      H4000   1.084       .  S
C3994      C3995   1.403       .  A
C3995      C3996   1.402       .  A
C3995      F4002   1.357       .  S
C3996      C3997   1.408       .  A
C3996      H4001   1.084       .  S
C3997      C3998   1.406       .  A
C3998      F3999   1.357       .  S
C4003      C4004   1.401       .  A
C4003      C4008   1.401       .  A
C4003      H4010   1.084       .  S
C4004      C4005   1.405       .  A
C4005      C4006   1.397       .  A
C4005      F4012   1.358       .  S
C4006      C4007   1.401       .  A
C4006      H4011   1.084       .  S
C4007      C4008   1.407       .  A
C4008      F4009   1.358       .  S
C4013      C4014   1.404       .  A
C4013      C4018   1.393       .  A
C4013      H4020   1.084       .  S
C4014      C4015   1.407       .  A
C4015      C4016   1.395       .  A
C4015      F4022   1.358       .  S
C4016      C4017   1.406       .  A
C4016      H4021   1.083       .  S
C4017      C4018   1.409       .  A
C4018      F4019   1.358       .  S
C4023      C4024   1.408       .  A
C4023      C4028   1.402       .  A
C4023      H4030   1.083       .  S
C4024      C4025   1.404       .  A
C4025      C4026   1.391       .  A
C4025      F4032   1.358       .  S
C4026      C4027   1.402       .  A
C4026      H4031   1.084       .  S
C4027      C4028   1.403       .  A
C4028      F4029   1.357       .  S
C4033      C4034   1.405       .  A
C4033      C4038   1.406       .  A
C4033      H4040   1.083       .  S
C4034      C4035   1.408       .  A
C4035      C4036   1.396       .  A
C4035      F4042   1.358       .  S
C4036      C4037   1.400       .  A
C4036      H4041   1.084       .  S
C4037      C4038   1.407       .  A
C4038      F4039   1.357   1_655  S
C4043      C4044   1.408       .  A
C4043      C4048   1.396       .  A
C4043      H4050   1.084       .  S
C4044      C4045   1.407       .  A
C4045      C4046   1.408       .  A
C4045      F4052   1.357       .  S
C4046      C4047   1.408       .  A
C4046      H4051   1.083       .  S
C4047      C4048   1.402       .  A
C4048      F4049   1.358       .  S
C4053      C4054   1.402       .  A
C4053      C4058   1.391       .  A
C4053      H4060   1.084       .  S
C4054      C4055   1.408       .  A
C4055      C4056   1.399       .  A
C4055      F4062   1.357       .  S
C4056      C4057   1.400       .  A
C4056      H4061   1.083       .  S
C4057      C4058   1.403       .  A
C4058      F4059   1.358       .  S
C4063      C4064   1.405       .  A
C4063      C4068   1.396       .  A
C4063      H4070   1.084       .  S
C4064      C4065   1.404       .  A
C4065      C4066   1.407       .  A
C4065      F4072   1.357       .  S
C4066      C4067   1.410       .  A
C4066      H4071   1.083       .  S
C4067      C4068   1.406       .  A
C4068      F4069   1.358       .  S
C4073      C4074   1.404       .  A
C4073      C4078   1.392       .  A
C4073      H4080   1.083       .  S
C4074      C4075   1.412       .  A
C4075      C4076   1.397       .  A
C4075      F4082   1.357       .  S
C4076      C4077   1.400       .  A
C4076      H4081   1.084       .  S
C4077      C4078   1.404       .  A
C4078      F4079   1.358       .  S
C4083      C4084   1.407       .  A
C4083      C4088   1.409       .  A
C4083      H4090   1.083       .  S
C4084      C4085   1.407       .  A
C4085      C4086   1.389       .  A
C4085      F4092   1.359       .  S
C4086      C4087   1.397       .  A
C4086      H4091   1.085       .  S
C4087      C4088   1.406       .  A
C4088      F4089   1.357       .  S
C4093      C4094   1.404       .  A
C4093      C4098   1.391       .  A
C4093      H4100   1.083       .  S
C4094      C4095   1.413       .  A
C4095      C4096   1.399       .  A
C4095      F4102   1.357       .  S
C4096      C4097   1.401       .  A
C4096      H4101   1.083       .  S
C4097      C4098   1.407       .  A
C4098      F4099   1.358       .  S
C4103      C4104   1.404       .  A
C4103      C4108   1.396       .  A
C4103      H4110   1.084       .  S
C4104      C4105   1.412       .  A
C4105      C4106   1.407       .  A
C4105      F4112   1.357       .  S
C4106      C4107   1.403       .  A
C4106      H4111   1.083       .  S
C4107      C4108   1.406       .  A
C4108      F4109   1.358       .  S
C4113      C4114   1.403       .  A
C4113      C4118   1.399       .  A
C4113      H4120   1.083       .  S
C4114      C4115   1.404       .  A
C4115      C4116   1.389       .  A
C4115      F4122   1.358       .  S
C4116      C4117   1.399       .  A
C4116      H4121   1.084       .  S
C4117      C4118   1.404       .  A
C4118      F4119   1.357       .  S
C4123      C4124   1.406       .  A
C4123      C4128   1.404       .  A
C4123      H4130   1.084       .  S
C4124      C4125   1.406       .  A
C4125      C4126   1.404       .  A
C4125      F4132   1.358       .  S
C4126      C4127   1.406       .  A
C4126      H4131   1.084       .  S
C4127      C4128   1.406       .  A
C4128      F4129   1.357       .  S
C4133      C4134   1.408       .  A
C4133      C4138   1.403       .  A
C4133      H4140   1.084       .  S
C4134      C4135   1.404       .  A
C4135      C4136   1.404       .  A
C4135      F4142   1.357       .  S
C4136      C4137   1.408       .  A
C4136      H4141   1.084       .  S
C4137      C4138   1.403       .  A
C4138      F4139   1.357       .  S
C4143      C4144   1.400       .  A
C4143      C4148   1.396       .  A
C4143      H4150   1.084       .  S
C4144      C4145   1.406       .  A
C4145      C4146   1.402       .  A
C4145      F4152   1.358       .  S
C4146      C4147   1.404       .  A
C4146      H4151   1.083       .  S
C4147      C4148   1.408       .  A
C4148      F4149   1.358       .  S
C4153      C4154   1.400       .  A
C4153      C4158   1.378       .  A
C4153      H4160   1.084       .  S
C4154      C4155   1.411       .  A
C4155      C4156   1.417       .  A
C4155      F4162   1.356       .  S
C4156      C4157   1.410       .  A
C4156      H4161   1.083       .  S
C4157      C4158   1.410       .  A
C4158      F4159   1.359       .  S
C4163      C4164   1.401       .  A
C4163      C4168   1.397       .  A
C4163      H4170   1.084       .  S
C4164      C4165   1.409       .  A
C4165      C4166   1.400       .  A
C4165      F4172   1.357       .  S
C4166      C4167   1.399       .  A
C4166      H4171   1.083       .  S
C4167      C4168   1.406       .  A
C4168      F4169   1.358       .  S
C4173      C4174   1.404       .  A
C4173      C4178   1.393       .  A
C4173      H4180   1.084       .  S
C4174      C4175   1.402       .  A
C4175      C4176   1.402       .  A
C4175      F4182   1.357       .  S
C4176      C4177   1.410       .  A
C4176      H4181   1.083       .  S
C4177      C4178   1.407       .  A
C4178      F4179   1.358       .  S
C4183      C4184   1.404       .  A
C4183      C4188   1.393       .  A
C4183      H4190   1.084       .  S
C4184      C4185   1.412       .  A
C4185      C4186   1.403       .  A
C4185      F4192   1.357       .  S
C4186      C4187   1.401       .  A
C4186      H4191   1.083       .  S
C4187      C4188   1.404       .  A
C4188      F4189   1.358       .  S
C4193      C4194   1.406       .  A
C4193      C4198   1.406       .  A
C4193      H4200   1.083       .  S
C4194      C4195   1.402       .  A
C4195      C4196   1.394       .  A
C4195      F4202   1.358       .  S
C4196      C4197   1.406       .  A
C4196      H4201   1.084       .  S
C4197      C4198   1.406       .  A
C4198      F4199   1.357       .  S
C4203      C4204   1.403       .  A
C4203      C4208   1.396       .  A
C4203      H4210   1.084       .  S
C4204      C4205   1.411       .  A
C4205      C4206   1.406       .  A
C4205      F4212   1.357       .  S
C4206      C4207   1.404       .  A
C4206      H4211   1.083       .  S
C4207      C4208   1.406       .  A
C4208      F4209   1.358       .  S
C4213      C4214   1.407       .  A
C4213      C4218   1.397       .  A
C4213      H4220   1.084       .  S
C4214      C4215   1.402       .  A
C4215      C4216   1.397       .  A
C4215      F4222   1.358       .  S
C4216      C4217   1.405       .  A
C4216      H4221   1.084       .  S
C4217      C4218   1.399       .  A
C4218      F4219   1.357       .  S
C4223      C4224   1.405       .  A
C4223      C4228   1.400       .  A
C4223      H4230   1.084       .  S
C4224      C4225   1.403       .  A
C4225      C4226   1.400       .  A
C4225      F4232   1.357       .  S
C4226      C4227   1.405       .  A
C4226      H4231   1.084       .  S
C4227      C4228   1.403       .  A
C4228      F4229   1.358       .  S
C4233      C4234   1.404       .  A
C4233      C4238   1.402       .  A
C4233      H4240   1.083       .  S
C4234      C4235   1.408       .  A
C4235      C4236   1.395       .  A
C4235      F4242   1.358       .  S
C4236      C4237   1.406       .  A
C4236      H4241   1.083       .  S
C4237      C4238   1.413       .  A
C4238      F4239   1.357       .  S
C4243      C4244   1.405       .  A
C4243      C4248   1.393       .  A
C4243      H4250   1.084       .  S
C4244      C4245   1.406       .  A
C4245      C4246   1.399       .  A
C4245      F4252   1.357       .  S
C4246      C4247   1.402       .  A
C4246      H4251   1.084       .  S
C4247      C4248   1.400       .  A
C4248      F4249   1.358       .  S
C4253      C4254   1.404       .  A
C4253      C4258   1.404       .  A
C4253      H4260   1.083       .  S
C4254      C4255   1.404       .  A
C4255      C4256   1.393       .  A
C4255      F4262   1.358       .  S
C4256      C4257   1.404       .  A
C4256      H4261   1.084       .  S
C4257      C4258   1.408       .  A
C4258      F4259   1.357       .  S
C4263      C4264   1.406       .  A
C4263      C4268   1.400       .  A
C4263      H4270   1.083       .  S
C4264      C4265   1.404       .  A
C4265      C4266   1.392       .  A
C4265      F4272   1.358       .  S
C4266      C4267   1.402       .  A
C4266      H4271   1.084       .  S
C4267      C4268   1.402       .  A
C4268      F4269   1.357       .  S
C4273      C4274   1.403       .  A
C4273      C4278   1.402       .  A
C4273      H4280   1.083       .  S
C4274      C4275   1.406       .  A
C4275      C4276   1.400       .  A
C4275      F4282   1.358       .  S
C4276      C4277   1.403       .  A
C4276      H4281   1.084       .  S
C4277      C4278   1.407       .  A
C4278      F4279   1.358       .  S
C4283      C4284   1.400       .  A
C4283      C4288   1.389       .  A
C4283      H4290   1.084       .  S
C4284      C4285   1.401       .  A
C4285      C4286   1.397       .  A
C4285      F4292   1.357       .  S
C4286      C4287   1.407       .  A
C4286      H4291   1.083       .  S
C4287      C4288   1.406       .  A
C4288      F4289   1.358       .  S
C4293      C4294   1.401       .  A
C4293      C4298   1.395       .  A
C4293      H4300   1.084       .  S
C4294      C4295   1.409       .  A
C4295      C4296   1.408       .  A
C4295      F4302   1.357       .  S
C4296      C4297   1.404       .  A
C4296      H4301   1.083       .  S
C4297      C4298   1.407       .  A
C4298      F4299   1.358       .  S
C4303      C4304   1.407       .  A
C4303      C4308   1.402       .  A
C4303      H4310   1.084       .  S
C4304      C4305   1.405       .  A
C4305      C4306   1.408       .  A
C4305      F4312   1.357       .  S
C4306      C4307   1.410       .  A
C4306      H4311   1.084       .  S
C4307      C4308   1.405       .  A
C4308      F4309   1.358       .  S
C4313      C4314   1.412       .  A
C4313      C4318   1.401       .  A
C4313      H4320   1.083       .  S
C4314      C4315   1.407       .  A
C4315      C4316   1.392       .  A
C4315      F4322   1.358       .  S
C4316      C4317   1.404       .  A
C4316      H4321   1.084       .  S
C4317      C4318   1.401       .  A
C4318      F4319   1.357       .  S
C4323      C4324   1.406       .  A
C4323      C4328   1.396       .  A
C4323      H4330   1.084       .  S
C4324      C4325   1.409       .  A
C4325      C4326   1.405       .  A
C4325      F4332   1.357       .  S
C4326      C4327   1.404       .  A
C4326      H4331   1.083       .  S
C4327      C4328   1.403       .  A
C4328      F4329   1.358       .  S
C4333      C4334   1.405       .  A
C4333      C4338   1.394       .  A
C4333      H4340   1.084       .  S
C4334      C4335   1.409       .  A
C4335      C4336   1.404       .  A
C4335      F4342   1.357       .  S
C4336      C4337   1.403       .  A
C4336      H4341   1.083       .  S
C4337      C4338   1.403       .  A
C4338      F4339   1.358       .  S
C4343      C4344   1.401       .  A
C4343      C4348   1.398       .  A
C4343      H4350   1.084       .  S
C4344      C4345   1.406       .  A
C4345      C4346   1.398       .  A
C4345      F4352   1.358       .  S
C4346      C4347   1.402       .  A
C4346      H4351   1.084       .  S
C4347      C4348   1.408       .  A
C4348      F4349   1.358       .  S
C4353      C4354   1.410       .  A
C4353      C4358   1.397       .  A
C4353      H4360   1.083       .  S
C4354      C4355   1.406       .  A
C4355      C4356   1.390       .  A
C4355      F4362   1.358       .  S
C4356      C4357   1.404       .  A
C4356      H4361   1.084       .  S
C4357      C4358   1.400       .  A
C4358      F4359   1.357       .  S
C4363      C4364   1.407       .  A
C4363      C4368   1.402       .  A
C4363      H4370   1.084       .  S
C4364      C4365   1.403       .  A
C4365      C4366   1.406       .  A
C4365      F4372   1.357       .  S
C4366      C4367   1.410       .  A
C4366      H4371   1.083       .  S
C4367      C4368   1.405       .  A
C4368      F4369   1.358       .  S
C4373      C4374   1.405       .  A
C4373      C4378   1.406       .  A
C4373      H4380   1.083       .  S
C4374      C4375   1.409       .  A
C4375      C4376   1.407       .  A
C4375      F4382   1.358       .  S
C4376      C4377   1.405       .  A
C4376      H4381   1.084       .  S
C4377      C4378   1.408       .  A
C4378      F4379   1.358       .  S
C4383      C4384   1.402       .  A
C4383      C4388   1.391       .  A
C4383      H4390   1.084       .  S
C4384      C4385   1.401       .  A
C4385      C4386   1.399       .  A
C4385      F4392   1.357       .  S
C4386      C4387   1.411       .  A
C4386      H4391   1.083       .  S
C4387      C4388   1.407       .  A
C4388      F4389   1.358       .  S
C4393      C4394   1.409       .  A
C4393      C4398   1.400       .  A
C4393      H4400   1.083       .  S
C4394      C4395   1.406       .  A
C4395      C4396   1.392       .  A
C4395      F4402   1.358       .  S
C4396      C4397   1.401       .  A
C4396      H4401   1.084       .  S
C4397      C4398   1.402       .  A
C4398      F4399   1.358       .  S
C4403      C4404   1.405       .  A
C4403      C4408   1.407       .  A
C4403      H4410   1.083       .  S
C4404      C4405   1.404       .  A
C4405      C4406   1.399       .  A
C4405      F4412   1.358       .  S
C4406      C4407   1.405       .  A
C4406      H4411   1.084       .  S
C4407      C4408   1.410       .  A
C4408      F4409   1.357       .  S
C4413      C4414   1.404       .  A
C4413      C4418   1.404       .  A
C4413      H4420   1.083       .  S
C4414      C4415   1.403       .  A
C4415      C4416   1.396       .  A
C4415      F4422   1.358       .  S
C4416      C4417   1.403       .  A
C4416      H4421   1.084       .  S
C4417      C4418   1.405       .  A
C4418      F4419   1.357       .  S
C4423      C4424   1.400   1_554  A
C4423      C4428   1.401       .  A
C4423      H4430   1.083       .  S
C4424      C4425   1.409       .  A
C4425      C4426   1.399       .  A
C4425      F4432   1.358       .  S
C4426      C4427   1.401       .  A
C4426      H4431   1.084       .  S
C4427      C4428   1.410   1_556  A
C4428      F4429   1.358       .  S
C4433      C4434   1.404   1_554  A
C4433      C4438   1.391       .  A
C4433      H4440   1.083       .  S
C4434      C4435   1.414       .  A
C4435      C4436   1.403       .  A
C4435      F4442   1.357       .  S
C4436      C4437   1.402       .  A
C4436      H4441   1.083       .  S
C4437      C4438   1.407   1_556  A
C4438      F4439   1.358       .  S
C4443      C4444   1.409       .  A
C4443      C4448   1.400       .  A
C4443      H4450   1.083       .  S
C4444      C4445   1.408       .  A
C4445      C4446   1.395       .  A
C4445      F4452   1.358       .  S
C4446      C4447   1.401       .  A
C4446      H4451   1.084       .  S
C4447      C4448   1.401       .  A
C4448      F4449   1.357       .  S
C4453      C4454   1.407       .  A
C4453      C4458   1.408       .  A
C4453      H4460   1.084       .  S
C4454      C4455   1.408   1_545  A
C4455      C4456   1.406   1_565  A
C4455      F4462   1.357       .  S
C4456      C4457   1.406       .  A
C4456      H4461   1.084   1_545  S
C4457      C4458   1.407       .  A
C4458      F4459   1.357       .  S
C4463      C4464   1.403       .  A
C4463      C4468   1.394       .  A
C4463      H4470   1.084       .  S
C4464      C4465   1.406       .  A
C4465      C4466   1.399       .  A
C4465      F4472   1.358   1_545  S
C4466      C4467   1.407       .  A
C4466      H4471   1.083       .  S
C4467      C4468   1.409       .  A
C4468      F4469   1.358       .  S
C4473      C4474   1.404       .  A
C4473      C4478   1.404       .  A
C4473      H4480   1.083       .  S
C4474      C4475   1.405       .  A
C4475      C4476   1.394       .  A
C4475      F4482   1.358       .  S
C4476      C4477   1.404       .  A
C4476      H4481   1.084       .  S
C4477      C4478   1.408       .  A
C4478      F4479   1.357       .  S
C4483      C4484   1.406       .  A
C4483      C4488   1.391       .  A
C4483      H4490   1.084       .  S
C4484      C4485   1.410       .  A
C4485      C4486   1.399       .  A
C4485      F4492   1.357       .  S
C4486      C4487   1.401       .  A
C4486      H4491   1.084       .  S
C4487      C4488   1.401       .  A
C4488      F4489   1.358       .  S
C4493      C4494   1.405   1_556  A
C4493      C4498   1.401       .  A
C4493      H4500   1.084       .  S
C4494      C4495   1.404       .  A
C4495      C4496   1.398       .  A
C4495      F4502   1.358       .  S
C4496      C4497   1.404   1_554  A
C4496      H4501   1.084       .  S
C4497      C4498   1.403       .  A
C4498      F4499   1.357       .  S
C4503      C4504   1.403   1_554  A
C4503      C4508   1.403       .  A
C4503      H4510   1.083       .  S
C4504      C4505   1.405       .  A
C4505      C4506   1.390       .  A
C4505      F4512   1.358       .  S
C4506      C4507   1.406       .  A
C4506      H4511   1.083       .  S
C4507      C4508   1.412   1_556  A
C4508      F4509   1.357       .  S
C4513      C4514   1.399       .  A
C4513      C4518   1.400       .  A
C4513      H4520   1.083       .  S
C4514      C4515   1.404       .  A
C4515      C4516   1.390       .  A
C4515      F4522   1.358       .  S
C4516      C4517   1.404       .  A
C4516      H4521   1.083       .  S
C4517      C4518   1.414       .  A
C4518      F4519   1.357       .  S
C4523      C4524   1.404       .  A
C4523      C4528   1.394       .  A
C4523      H4530   1.084       .  S
C4524      C4525   1.407       .  A
C4525      C4526   1.401       .  A
C4525      F4532   1.357       .  S
C4526      C4527   1.403       .  A
C4526      H4531   1.084       .  S
C4527      C4528   1.402       .  A
C4528      F4529   1.358       .  S
C4533      C4534   1.401       .  A
C4533      C4538   1.399       .  A
C4533      H4540   1.084       .  S
C4534      C4535   1.409       .  A
C4535      C4536   1.403       .  A
C4535      F4542   1.357       .  S
C4536      C4537   1.402       .  A
C4536      H4541   1.083       .  S
C4537      C4538   1.409       .  A
C4538      F4539   1.358       .  S
C4543      C4544   1.405       .  A
C4543      C4548   1.402       .  A
C4543      H4550   1.084       .  S
C4544      C4545   1.403       .  A
C4545      C4546   1.399       .  A
C4545      F4552   1.358       .  S
C4546      C4547   1.405       .  A
C4546      H4551   1.084       .  S
C4547      C4548   1.404       .  A
C4548      F4549   1.357       .  S
C4553      C4554   1.402       .  A
C4553      C4558   1.401       .  A
C4553      H4560   1.083       .  S
C4554      C4555   1.403       .  A
C4555      C4556   1.393       .  A
C4555      F4562   1.358       .  S
C4556      C4557   1.405       .  A
C4556      H4561   1.084       .  S
C4557      C4558   1.411       .  A
C4558      F4559   1.357       .  S
C4563      C4564   1.407       .  A
C4563      C4568   1.401       .  A
C4563      H4570   1.083       .  S
C4564      C4565   1.407       .  A
C4565      C4566   1.398       .  A
C4565      F4572   1.358       .  S
C4566      C4567   1.402       .  A
C4566      H4571   1.084       .  S
C4567      C4568   1.403       .  A
C4568      F4569   1.357       .  S
C4573      C4574   1.406       .  A
C4573      C4578   1.410       .  A
C4573      H4580   1.083       .  S
C4574      C4575   1.407       .  A
C4575      C4576   1.391       .  A
C4575      F4582   1.358       .  S
C4576      C4577   1.399       .  A
C4576      H4581   1.085       .  S
C4577      C4578   1.408       .  A
C4578      F4579   1.357       .  S
C4583      C4584   1.402       .  A
C4583      C4588   1.401       .  A
C4583      H4590   1.083       .  S
C4584      C4585   1.407       .  A
C4585      C4586   1.402       .  A
C4585      F4592   1.358       .  S
C4586      C4587   1.403       .  A
C4586      H4591   1.083       .  S
C4587      C4588   1.407       .  A
C4588      F4589   1.358       .  S
C4593      C4594   1.403       .  A
C4593      C4598   1.404       .  A
C4593      H4600   1.084       .  S
C4594      C4595   1.409       .  A
C4595      C4596   1.402       .  A
C4595      F4602   1.358       .  S
C4596      C4597   1.401       .  A
C4596      H4601   1.084       .  S
C4597      C4598   1.409       .  A
C4598      F4599   1.358       .  S
C4603      C4604   1.404       .  A
C4603      C4608   1.394       .  A
C4603      H4610   1.084       .  S
C4604      C4605   1.403       .  A
C4605      C4606   1.401       .  A
C4605      F4612   1.357       .  S
C4606      C4607   1.410       .  A
C4606      H4611   1.083       .  S
C4607      C4608   1.409       .  A
C4608      F4609   1.358       .  S
C4613      C4614   1.401       .  A
C4613      C4618   1.390       .  A
C4613      H4620   1.084       .  S
C4614      C4615   1.401       .  A
C4615      C4616   1.399       .  A
C4615      F4622   1.357       .  S
C4616      C4617   1.403       .  A
C4616      H4621   1.083       .  S
C4617      C4618   1.401       .  A
C4618      F4619   1.359       .  S
C4623      C4624   1.411       .  A
C4623      C4628   1.412       .  A
C4623      H4630   1.083       .  S
C4624      C4625   1.412   1_565  A
C4625      C4626   1.381       .  A
C4625      F4632   1.359       .  S
C4626      C4627   1.394   1_545  A
C4626      H4631   1.085       .  S
C4627      C4628   1.406       .  A
C4628      F4629   1.356       .  S
C4633      C4634   1.403       .  A
C4633      C4638   1.393       .  A
C4633      H4640   1.084       .  S
C4634      C4635   1.403       .  A
C4635      C4636   1.401       .  A
C4635      F4642   1.357       .  S
C4636      C4637   1.410       .  A
C4636      H4641   1.083       .  S
C4637      C4638   1.410       .  A
C4638      F4639   1.358       .  S
C4643      C4644   1.408       .  A
C4643      C4648   1.399       .  A
C4643      H4650   1.084       .  S
C4644      C4645   1.401       .  A
C4645      C4646   1.402       .  A
C4645      F4652   1.357   1_545  S
C4646      C4647   1.408       .  A
C4646      H4651   1.084       .  S
C4647      C4648   1.401       .  A
C4648      F4649   1.358       .  S
C4653      C4654   1.407   1_565  A
C4653      C4658   1.393       .  A
C4653      H4660   1.084       .  S
C4654      C4655   1.400       .  A
C4655      C4656   1.398       .  A
C4655      F4662   1.357       .  S
C4656      C4657   1.412   1_545  A
C4656      H4661   1.083       .  S
C4657      C4658   1.405       .  A
C4658      F4659   1.358       .  S
C4663      C4664   1.406       .  A
C4663      C4668   1.403       .  A
C4663      H4670   1.083       .  S
C4664      C4665   1.410       .  A
C4665      C4666   1.395       .  A
C4665      F4672   1.358       .  S
C4666      C4667   1.399       .  A
C4666      H4671   1.084       .  S
C4667      C4668   1.405       .  A
C4668      F4669   1.357       .  S
C4673      C4674   1.403       .  A
C4673      C4678   1.391       .  A
C4673      H4680   1.084       .  S
C4674      C4675   1.407       .  A
C4675      C4676   1.399       .  A
C4675      F4682   1.357       .  S
C4676      C4677   1.403       .  A
C4676      H4681   1.084       .  S
C4677      C4678   1.404       .  A
C4678      F4679   1.358       .  S
C4683      C4684   1.400       .  A
C4683      C4688   1.398       .  A
C4683      H4690   1.083       .  S
C4684      C4685   1.406       .  A
C4685      C4686   1.397       .  A
C4685      F4692   1.358       .  S
C4686      C4687   1.400       .  A
C4686      H4691   1.084       .  S
C4687      C4688   1.406       .  A
C4688      F4689   1.358       .  S
C4693      C4694   1.402       .  A
C4693      C4698   1.403       .  A
C4693      H4700   1.083       .  S
C4694      C4695   1.408       .  A
C4695      C4696   1.401       .  A
C4695      F4702   1.358       .  S
C4696      C4697   1.402       .  A
C4696      H4701   1.084       .  S
C4697      C4698   1.409       .  A
C4698      F4699   1.358       .  S
C4703      C4704   1.412       .  A
C4703      C4708   1.406       .  A
C4703      H4710   1.083       .  S
C4704      C4705   1.409       .  A
C4705      C4706   1.396       .  A
C4705      F4712   1.358       .  S
C4706      C4707   1.406       .  A
C4706      H4711   1.084       .  S
C4707      C4708   1.405       .  A
C4708      F4709   1.357       .  S
C4713      C4714   1.402       .  A
C4713      C4718   1.389       .  A
C4713      H4720   1.084       .  S
C4714      C4715   1.404       .  A
C4715      C4716   1.399       .  A
C4715      F4722   1.358       .  S
C4716      C4717   1.406       .  A
C4716      H4721   1.083       .  S
C4717      C4718   1.404       .  A
C4718      F4719   1.358       .  S
C4723      C4724   1.400       .  A
C4723      C4728   1.396       .  A
C4723      H4730   1.084       .  S
C4724      C4725   1.409       .  A
C4725      C4726   1.401       .  A
C4725      F4732   1.358       .  S
C4726      C4727   1.399       .  A
C4726      H4731   1.083       .  S
C4727      C4728   1.407       .  A
C4728      F4729   1.359       .  S
C4733      C4734   1.404       .  A
C4733      C4738   1.402       .  A
C4733      H4740   1.084       .  S
C4734      C4735   1.407       .  A
C4735      C4736   1.402       .  A
C4735      F4742   1.358       .  S
C4736      C4737   1.403       .  A
C4736      H4741   1.083       .  S
C4737      C4738   1.406       .  A
C4738      F4739   1.358       .  S
C4743      C4744   1.399       .  A
C4743      C4748   1.398       .  A
C4743      H4750   1.083       .  S
C4744      C4745   1.405       .  A
C4745      C4746   1.391       .  A
C4745      F4752   1.358       .  S
C4746      C4747   1.404       .  A
C4746      H4751   1.083       .  S
C4747      C4748   1.413       .  A
C4748      F4749   1.358       .  S
C4753      C4754   1.407       .  A
C4753      C4758   1.402       .  A
C4753      H4760   1.083       .  S
C4754      C4755   1.407       .  A
C4755      C4756   1.392       .  A
C4755      F4762   1.358       .  S
C4756      C4757   1.401       .  A
C4756      H4761   1.084       .  S
C4757      C4758   1.404       .  A
C4758      F4759   1.357       .  S
C4763      C4764   1.403       .  A
C4763      C4768   1.405       .  A
C4763      H4770   1.083       .  S
C4764      C4765   1.404       .  A
C4765      C4766   1.396       .  A
C4765      F4772   1.358       .  S
C4766      C4767   1.404       .  A
C4766      H4771   1.084       .  S
C4767      C4768   1.409       .  A
C4768      F4769   1.357       .  S
C4773      C4774   1.406       .  A
C4773      C4778   1.403       .  A
C4773      H4780   1.084       .  S
C4774      C4775   1.405       .  A
C4775      C4776   1.405       .  A
C4775      F4782   1.357       .  S
C4776      C4777   1.406       .  A
C4776      H4781   1.084       .  S
C4777      C4778   1.406       .  A
C4778      F4779   1.358       .  S
C4783      C4784   1.408       .  A
C4783      C4788   1.401       .  A
C4783      H4790   1.084       .  S
C4784      C4785   1.402       .  A
C4785      C4786   1.398       .  A
C4785      F4792   1.358       .  S
C4786      C4787   1.407       .  A
C4786      H4791   1.084       .  S
C4787      C4788   1.401       .  A
C4788      F4789   1.357       .  S
C4793      C4794   1.404       .  A
C4793      C4798   1.391       .  A
C4793      H4800   1.083       .  S
C4794      C4795   1.411       .  A
C4795      C4796   1.396       .  A
C4795      F4802   1.358       .  S
C4796      C4797   1.401       .  A
C4796      H4801   1.083       .  S
C4797      C4798   1.407       .  A
C4798      F4799   1.358       .  S
C4803      C4804   1.401       .  A
C4803      C4808   1.388       .  A
C4803      H4810   1.084       .  S
C4804      C4805   1.405       .  A
C4805      C4806   1.403       .  A
C4805      F4812   1.357       .  S
C4806      C4807   1.409       .  A
C4806      H4811   1.083       .  S
C4807      C4808   1.411       .  A
C4808      F4809   1.358       .  S
C4813      C4814   1.397       .  A
C4813      C4818   1.391       .  A
C4813      H4820   1.084       .  S
C4814      C4815   1.402       .  A
C4815      C4816   1.396       .  A
C4815      F4822   1.357   1_565  S
C4816      C4817   1.403       .  A
C4816      H4821   1.083       .  S
C4817      C4818   1.407       .  A
C4818      F4819   1.358       .  S
C4823      C4824   1.407       .  A
C4823      C4828   1.410       .  A
C4823      H4830   1.083       .  S
C4824      C4825   1.406       .  A
C4825      C4826   1.395       .  A
C4825      F4832   1.358       .  S
C4826      C4827   1.404       .  A
C4826      H4831   1.084       .  S
C4827      C4828   1.409       .  A
C4828      F4829   1.357   1_565  S
C4833      C4834   1.405       .  A
C4833      C4838   1.394       .  A
C4833      H4840   1.083       .  S
C4834      C4835   1.403       .  A
C4835      C4836   1.388       .  A
C4835      F4842   1.358       .  S
C4836      C4837   1.402       .  A
C4836      H4841   1.084       .  S
C4837      C4838   1.402       .  A
C4838      F4839   1.358       .  S
C4843      C4844   1.405       .  A
C4843      C4848   1.404       .  A
C4843      H4850   1.083       .  S
C4844      C4845   1.404       .  A
C4845      C4846   1.390       .  A
C4845      F4852   1.359       .  S
C4846      C4847   1.400       .  A
C4846      H4851   1.084       .  S
C4847      C4848   1.404       .  A
C4848      F4849   1.357       .  S
C4853      C4854   1.401       .  A
C4853      C4858   1.399       .  A
C4853      H4860   1.083       .  S
C4854      C4855   1.405       .  A
C4855      C4856   1.393       .  A
C4855      F4862   1.358       .  S
C4856      C4857   1.400       .  A
C4856      H4861   1.084       .  S
C4857      C4858   1.405       .  A
C4858      F4859   1.357       .  S
C4863      C4864   1.405       .  A
C4863      C4868   1.395       .  A
C4863      H4870   1.083       .  S
C4864      C4865   1.409       .  A
C4865      C4866   1.394       .  A
C4865      F4872   1.358       .  S
C4866      C4867   1.405       .  A
C4866      H4871   1.083       .  S
C4867      C4868   1.405       .  A
C4868      F4869   1.355       .  S
C4873      C4874   1.406       .  A
C4873      C4878   1.402       .  A
C4873      H4880   1.082       .  S
C4874      C4875   1.405       .  A
C4875      C4876   1.409       .  A
C4875      F4882   1.357       .  S
C4876      C4877   1.410       .  A
C4876      H4881   1.083       .  S
C4877      C4878   1.405       .  A
C4878      F4879   1.358       .  S
C4883      C4884   1.402       .  A
C4883      C4888   1.400       .  A
C4883      H4890   1.084       .  S
C4884      C4885   1.405       .  A
C4885      C4886   1.405       .  A
C4885      F4892   1.357       .  S
C4886      C4887   1.406       .  A
C4886      H4891   1.083       .  S
C4887      C4888   1.407       .  A
C4888      F4889   1.358       .  S
C4893      C4894   1.402       .  A
C4893      C4898   1.398       .  A
C4893      H4900   1.083       .  S
C4894      C4895   1.407       .  A
C4895      C4896   1.398       .  A
C4895      F4902   1.358       .  S
C4896      C4897   1.401       .  A
C4896      H4901   1.084       .  S
C4897      C4898   1.404       .  A
C4898      F4899   1.357       .  S
C4903      C4904   1.405       .  A
C4903      C4908   1.404       .  A
C4903      H4910   1.083       .  S
C4904      C4905   1.402       .  A
C4905      C4906   1.393       .  A
C4905      F4912   1.355       .  S
C4906      C4907   1.401       .  A
C4906      H4911   1.084       .  S
C4907      C4908   1.407       .  A
C4908      F4909   1.358       .  S
C4913      C4914   1.408       .  A
C4913      C4918   1.408       .  A
C4913      H4920   1.083       .  S
C4914      C4915   1.407       .  A
C4915      C4916   1.398       .  A
C4915      F4922   1.358       .  S
C4916      C4917   1.403       .  A
C4916      H4921   1.084       .  S
C4917      C4918   1.406       .  A
C4918      F4919   1.357       .  S
C4923      C4924   1.400       .  A
C4923      C4928   1.393       .  A
C4923      H4930   1.084       .  S
C4924      C4925   1.405       .  A
C4925      C4926   1.400       .  A
C4925      F4932   1.358       .  S
C4926      C4927   1.403       .  A
C4926      H4931   1.084       .  S
C4927      C4928   1.405       .  A
C4928      F4929   1.358       .  S
C4933      C4934   1.401       .  A
C4933      C4938   1.399       .  A
C4933      H4940   1.084       .  S
C4934      C4935   1.411       .  A
C4935      C4936   1.400       .  A
C4935      F4942   1.358       .  S
C4936      C4937   1.398       .  A
C4936      H4941   1.083       .  S
C4937      C4938   1.407       .  A
C4938      F4939   1.358       .  S
C4943      C4944   1.412       .  A
C4943      C4948   1.420       .  A
C4943      H4950   1.083       .  S
C4944      C4945   1.408       .  A
C4945      C4946   1.383       .  A
C4945      F4952   1.358       .  S
C4946      C4947   1.404       .  A
C4946      H4951   1.083       .  S
C4947      C4948   1.413       .  A
C4948      F4949   1.356       .  S
C4953      C4954   1.401       .  A
C4953      C4958   1.404       .  A
C4953      H4960   1.083       .  S
C4954      C4955   1.405       .  A
C4955      C4956   1.394       .  A
C4955      F4962   1.358       .  S
C4956      C4957   1.406       .  A
C4956      H4961   1.083       .  S
C4957      C4958   1.413       .  A
C4958      F4959   1.357       .  S
C4963      C4964   1.406       .  A
C4963      C4968   1.383       .  A
C4963      H4970   1.083       .  S
C4964      C4965   1.411       .  A
C4965      C4966   1.410       .  A
C4965      F4972   1.357       .  S
C4966      C4967   1.406       .  A
C4966      H4971   1.083       .  S
C4967      C4968   1.402       .  A
C4968      F4969   1.359       .  S
C4973      C4974   1.401       .  A
C4973      C4978   1.396       .  A
C4973      H4980   1.084       .  S
C4974      C4975   1.407       .  A
C4975      C4976   1.407       .  A
C4975      F4982   1.357       .  S
C4976      C4977   1.406       .  A
C4976      H4981   1.083       .  S
C4977      C4978   1.407       .  A
C4978      F4979   1.358       .  S
C4983      C4984   1.404       .  A
C4983      C4988   1.393       .  A
C4983      H4990   1.084       .  S
C4984      C4985   1.414       .  A
C4985      C4986   1.407       .  A
C4985      F4992   1.357       .  S
C4986      C4987   1.402       .  A
C4986      H4991   1.083       .  S
C4987      C4988   1.406       .  A
C4988      F4989   1.358       .  S
