geometry optimzed in LAMMPS
_audit_creation_date              2020-11-30 
_audit_creation_method            'lammps2cif' 
_symmetry_space_group_name_H-M    'P1' 
_symmetry_Int_Tables_number       1 
_symmetry_cell_setting            triclinic 
loop_ 
_symmetry_equiv_pos_as_xyz 
  x,y,z 
_cell_length_a                    33.49667853 
_cell_length_b                    34.07001528054504 
_cell_length_c                    38.26391262495846 
_cell_angle_alpha                 90.08368999706946 
_cell_angle_beta                  90.0701038188619 
_cell_angle_gamma                 89.9450116741355 
loop_ 
_atom_site_label 
_atom_site_type_symbol 
_atom_site_fract_x 
_atom_site_fract_y 
_atom_site_fract_z 
_atom_site_charge 
N1          N  0.49993923  0.43931716  0.77279486    -0.36900
N2          N  0.43543453  0.49737902  0.77781940    -0.57400
N3          N  0.49824399  0.55631135  0.77890714    -0.36900
N4          N  0.56263440  0.49843394  0.77734911    -0.57400
C5          C  0.46763397  0.41577051  0.77503797     0.26700
C6          C  0.53270086  0.41623733  0.77485431     0.26700
C7          C  0.46562821  0.57869952  0.78479242     0.26700
C8          C  0.53063602  0.57921900  0.78387361     0.26700
C9          C  0.41463549  0.46611551  0.76575182     0.35300
C10         C  0.41371652  0.52956986  0.76939350     0.35300
C11         C  0.58463047  0.46756880  0.76611636     0.35300
C12         C  0.58350564  0.53099289  0.76870953     0.35300
C13         C  0.47997199  0.37728678  0.77983049    -0.22200
C14         C  0.52109276  0.37757685  0.77963507    -0.22200
C15         C  0.47746819  0.61604615  0.79484401    -0.22200
C16         C  0.51859188  0.61640840  0.79412140    -0.22200
C17         C  0.37860984  0.47833276  0.75160799    -0.23200
C18         C  0.37811544  0.51845548  0.75372346    -0.23200
C19         C  0.62066510  0.48049688  0.75260856    -0.23200
C20         C  0.61987722  0.52066529  0.75410590    -0.23200
C21         C  0.42856051  0.42687883  0.76521626    -0.18600
C22         C  0.57162303  0.42807834  0.76533981    -0.18600
C23         C  0.56921064  0.56992512  0.77165537    -0.18600
C24         C  0.42663469  0.56889107  0.77365574    -0.18600
H25         H  0.46127869  0.35140890  0.78072959     0.14400
H26         H  0.54023253  0.35198193  0.78048552     0.14400
H27         H  0.45838362  0.64116708  0.79950379     0.14400
H28         H  0.53742081  0.64182464  0.79813956     0.14400
H29         H  0.35575234  0.46038353  0.73958101     0.12600
H30         H  0.35478655  0.53717033  0.74350706     0.12600
H31         H  0.64435463  0.46291799  0.74140144     0.12600
H32         H  0.64288433  0.54002672  0.74434870     0.12600
H33         H  0.49957039  0.46759578  0.76298449     0.25900
H34         H  0.49830175  0.53033860  0.76480082     0.25900
N35         N  0.49456533  0.55776984  0.92763610    -0.36900
N36         N  0.55756755  0.49922677  0.93069364    -0.57400
N37         N  0.49274930  0.44214695  0.93112960    -0.36900
N38         N  0.42949325  0.50071378  0.92580047    -0.57400
C39         C  0.52750176  0.57956610  0.92157316     0.26700
C40         C  0.46250071  0.58034214  0.92032011     0.26700
C41         C  0.52526379  0.41881717  0.92837652     0.26700
C42         C  0.46027363  0.41970479  0.92484615     0.26700
C43         C  0.57741822  0.53139286  0.94204053     0.35300
C44         C  0.57622489  0.46793742  0.94509411     0.35300
C45         C  0.40983326  0.53316309  0.93680005     0.35300
C46         C  0.40855129  0.46960450  0.93785108     0.35300
C47         C  0.51626997  0.61609623  0.90898615    -0.22200
C48         C  0.47510484  0.61663139  0.90833113    -0.22200
C49         C  0.51351028  0.38132902  0.91877916    -0.22200
C50         C  0.47241750  0.38189792  0.91649437    -0.22200
C51         C  0.60960633  0.52035440  0.96264684    -0.23200
C52         C  0.60896630  0.48012998  0.96441540    -0.23200
C53         C  0.37541466  0.52262455  0.95453188    -0.23200
C54         C  0.37453568  0.48234551  0.95510769    -0.23200
C55         C  0.56560557  0.57054417  0.93522835    -0.18600
C56         C  0.42358769  0.57206370  0.93221996    -0.18600
C57         C  0.42105971  0.43001909  0.93511048    -0.18600
C58         C  0.56326705  0.42861880  0.94186513    -0.18600
H59         H  0.53565354  0.64077025  0.90365538     0.14400
H60         H  0.45652196  0.64175079  0.90233524     0.14400
H61         H  0.53232325  0.35560955  0.91649604     0.14400
H62         H  0.45343174  0.35664204  0.91222947     0.14400
H63         H  0.63066166  0.53925012  0.97596156     0.12600
H64         H  0.62941839  0.46207627  0.97929600     0.12600
H65         H  0.35383415  0.54186346  0.96678251     0.12600
H66         H  0.35222202  0.46462355  0.96803164     0.12600
H67         H  0.49377204  0.53274750  0.94308448     0.25900
H68         H  0.49225454  0.46896968  0.94400200     0.25900
N69         N  0.49388058  0.12674076  0.40638631    -0.36900
N70         N  0.43609348  0.12756882  0.35044644    -0.57400
N71         N  0.49961546  0.12799906  0.29857394    -0.36900
N72         N  0.55746693  0.12726417  0.35438366    -0.57400
C73         C  0.46060503  0.13791701  0.42386182     0.26700
C74         C  0.52555598  0.13769503  0.42604431     0.26700
C75         C  0.46793913  0.13923032  0.27904715     0.26700
C76         C  0.53288695  0.13919993  0.28118896     0.26700
C77         C  0.41100249  0.12271941  0.37768869     0.35300
C78         C  0.41405739  0.12287008  0.32121696     0.35300
C79         C  0.57959240  0.12241777  0.38354140     0.35300
C80         C  0.58264099  0.12326804  0.32706517     0.35300
C81         C  0.47127701  0.15533301  0.45528561    -0.22200
C82         C  0.51225802  0.15517621  0.45667639    -0.22200
C83         C  0.48122580  0.15710505  0.24865103    -0.22200
C84         C  0.52221414  0.15706213  0.24999927    -0.22200
C85         C  0.37290483  0.11425370  0.36577542    -0.23200
C86         C  0.37486711  0.11418299  0.32989898    -0.23200
C87         C  0.61895730  0.11463492  0.37472705    -0.23200
C88         C  0.62085263  0.11500108  0.33885778    -0.23200
C89         C  0.42083596  0.13215128  0.41253134    -0.18600
C90         C  0.56615359  0.13165500  0.41749387    -0.18600
C91         C  0.57265501  0.13289208  0.29230180    -0.18600
C92         C  0.42737271  0.13280233  0.28741375    -0.18600
H93         H  0.45161284  0.16722566  0.47508101     0.14400
H94         H  0.53020176  0.16691044  0.47778149     0.14400
H95         H  0.46327186  0.16913280  0.22769943     0.14400
H96         H  0.54189288  0.16908272  0.23032487     0.14400
H97         H  0.34618020  0.11047651  0.38127829     0.12600
H98         H  0.34989732  0.11043107  0.31223012     0.12600
H99         H  0.64402883  0.11111433  0.39232225     0.12600
H100        H  0.64764114  0.11180926  0.32331572     0.12600
H101        H  0.49494848  0.10977282  0.38377785     0.25900
H102        H  0.49855211  0.11060700  0.32087648     0.25900
N103        N  0.87116958  0.49882761  0.29903274    -0.36900
N104        N  0.86913271  0.55502170  0.35595414    -0.57400
N105        N  0.87464568  0.49147635  0.40724897    -0.36900
N106        N  0.87394390  0.43530124  0.35011599    -0.57400
C107        C  0.86009169  0.53167008  0.28164987     0.26700
C108        C  0.86076390  0.46789465  0.27876379     0.26700
C109        C  0.86326400  0.52172983  0.42797561     0.26700
C110        C  0.86619987  0.45795183  0.42476846     0.26700
C111        C  0.87199997  0.58048222  0.32895713     0.35300
C112        C  0.87216533  0.57658798  0.38552637     0.35300
C113        C  0.87630693  0.41382610  0.32050196     0.35300
C114        C  0.87882583  0.40992914  0.37688557     0.35300
C115        C  0.84342555  0.52143626  0.24969755    -0.22200
C116        C  0.84391773  0.48127352  0.24785549    -0.22200
C117        C  0.84886054  0.50728161  0.45939367    -0.22200
C118        C  0.85063536  0.46713907  0.45734743    -0.22200
C119        C  0.87740635  0.61830189  0.34146689    -0.23200
C120        C  0.87728710  0.61586312  0.37730264    -0.23200
C121        C  0.88345714  0.37476342  0.32843946    -0.23200
C122        C  0.88514112  0.37230652  0.36419467    -0.23200
C123        C  0.86486988  0.57075453  0.29350910    -0.18600
C124        C  0.86641858  0.42782788  0.28692431    -0.18600
C125        C  0.87172657  0.41914734  0.41231841    -0.18600
C126        C  0.86546172  0.56212278  0.41962135    -0.18600
H127        H  0.83160252  0.54082006  0.22983172     0.14400
H128        H  0.83274361  0.46392340  0.22624383     0.14400
H129        H  0.83753232  0.52388646  0.48138962     0.14400
H130        H  0.84081676  0.44702725  0.47743647     0.14400
H131        H  0.87969550  0.64503647  0.32636043     0.12600
H132        H  0.87951834  0.64032884  0.39527817     0.12600
H133        H  0.88546063  0.35033570  0.31039965     0.12600
H134        H  0.88866260  0.34559958  0.37917816     0.12600
H135        H  0.88764566  0.49769708  0.32204180     0.25900
H136        H  0.88962367  0.49368693  0.38356191     0.25900
N137        N  0.49639349  0.86771100  0.30200635    -0.36900
N138        N  0.55831994  0.87341210  0.35534393    -0.57400
N139        N  0.49880229  0.87072829  0.41004259    -0.36900
N140        N  0.43680764  0.86358366  0.35645244    -0.57400
C141        C  0.52921518  0.85874021  0.28300451     0.26700
C142        C  0.46429351  0.85541376  0.28344814     0.26700
C143        C  0.53235954  0.86344903  0.42874420     0.26700
C144        C  0.46762096  0.85778420  0.42928406     0.26700
C145        C  0.58121568  0.87756631  0.32656925     0.35300
C146        C  0.58240875  0.87978602  0.38311469     0.35300
C147        C  0.41213910  0.86607781  0.32855259     0.35300
C148        C  0.41359365  0.86670530  0.38514828     0.35300
C149        C  0.51772208  0.84126358  0.25178315    -0.22200
C150        C  0.47679227  0.83933098  0.25200697    -0.22200
C151        C  0.52222180  0.84670895  0.46054959    -0.22200
C152        C  0.48143288  0.84311325  0.46087640    -0.22200
C153        C  0.61988331  0.88743865  0.33606050    -0.23200
C154        C  0.62066395  0.88872034  0.37193495    -0.23200
C155        C  0.37308551  0.87121911  0.33953258    -0.23200
C156        C  0.37400764  0.87168280  0.37544848    -0.23200
C157        C  0.56926788  0.86668457  0.29251070    -0.18600
C158        C  0.42391326  0.85911431  0.29367353    -0.18600
C159        C  0.42689134  0.85961271  0.41961780    -0.18600
C160        C  0.57197102  0.87133401  0.41801772    -0.18600
H161        H  0.53682129  0.83083080  0.23094418     0.14400
H162        H  0.45837851  0.82710669  0.23143996     0.14400
H163        H  0.54214283  0.83760467  0.48131020     0.14400
H164        H  0.46399039  0.83072109  0.48193593     0.14400
H165        H  0.64532501  0.89120439  0.31898250     0.12600
H166        H  0.64679354  0.89372885  0.38800216     0.12600
H167        H  0.34658973  0.87298384  0.32338703     0.12600
H168        H  0.34832356  0.87372506  0.39249691     0.12600
H169        H  0.49573823  0.88433256  0.32480236     0.25900
H170        H  0.49696993  0.88625158  0.38672156     0.25900
N171        N  0.12289185  0.50484198  0.40257239    -0.36900
N172        N  0.12166249  0.44213078  0.35028854    -0.57400
N173        N  0.12235803  0.49924304  0.29431835    -0.36900
N174        N  0.12523239  0.56215592  0.34666609    -0.57400
C175        C  0.13305188  0.47342001  0.42233944     0.26700
C176        C  0.13429683  0.53734622  0.42042595     0.26700
C177        C  0.13157074  0.46608980  0.27635964     0.26700
C178        C  0.13378124  0.53005033  0.27436955     0.26700
C179        C  0.11729219  0.42038699  0.37955174     0.35300
C180        C  0.11675516  0.41737971  0.32294165     0.35300
C181        C  0.12169126  0.58705488  0.37411313     0.35300
C182        C  0.12226846  0.58415652  0.31738781     0.35300
C183        C  0.15026021  0.48615507  0.45333713    -0.22200
C184        C  0.15109041  0.52639703  0.45211672    -0.22200
C185        C  0.14814165  0.47606232  0.24439111    -0.22200
C186        C  0.14943355  0.51630533  0.24309302    -0.22200
C187        C  0.10892899  0.38177514  0.37078528    -0.23200
C188        C  0.10847660  0.37989059  0.33491953    -0.23200
C189        C  0.11591954  0.62502766  0.36220555    -0.23200
C190        C  0.11640113  0.62321263  0.32627384    -0.23200
C191        C  0.12667731  0.43350301  0.41362302    -0.18600
C192        C  0.12949446  0.57673168  0.40933149    -0.18600
C193        C  0.12990186  0.57032447  0.28310988    -0.18600
C194        C  0.12508961  0.42699790  0.28772214    -0.18600
H195        H  0.16136040  0.46832172  0.47462912     0.14400
H196        H  0.16312635  0.54538517  0.47222955     0.14400
H197        H  0.15858641  0.45642228  0.22411052     0.14400
H198        H  0.16095646  0.53346085  0.22157095     0.14400
H199        H  0.10520719  0.35722454  0.38840583     0.12600
H200        H  0.10427093  0.35360296  0.31943647     0.12600
H201        H  0.11350089  0.65147068  0.37777455     0.12600
H202        H  0.11419038  0.64798919  0.30869789     0.12600
H203        H  0.10627962  0.50419554  0.37960375     0.25900
H204        H  0.10641406  0.50090300  0.31756517     0.25900
Zr205      Zr  0.23105537  0.22863069  0.15982585     2.17500
O206        O  0.24562330  0.22563262  0.22218563    -0.51600
O207        O  0.18086565  0.18124642  0.17769929    -0.74800
O208        O  0.19603293  0.28097508  0.19194696    -0.81600
O209        O  0.32500688  0.16394690  0.14523140    -0.83300
O210        O  0.16437226  0.32013025  0.15285648    -0.79000
O211        O  0.28732726  0.19481743  0.18612684    -0.90600
O212        O  0.15149831  0.15223306  0.13096125    -0.76500
O213        O  0.17525581  0.23522407  0.12196753    -0.86000
O214        O  0.23497805  0.17525053  0.11960565    -0.85700
O215        O  0.24066768  0.29184758  0.13333453    -0.72500
O216        O  0.29386362  0.23531084  0.13038835    -0.84600
Zr217      Zr  0.24959763  0.25260261  0.02322869     2.26400
Zr218      Zr  0.18448716  0.29776621  0.09489034     2.06300
Zr219      Zr  0.29684529  0.18258426  0.08920237     2.10000
Zr220      Zr  0.18024517  0.18291647  0.08059920     1.78800
O221        O  0.36925486  0.18301961  0.08377078    -0.93400
O222        O  0.10826946  0.19192895  0.07567773    -0.41200
O223        O  0.24180993  0.18948458  0.04999619    -0.77900
O224        O  0.18660510  0.24514697  0.05291561    -0.96600
O225        O  0.24631007  0.30554235  0.06397267    -0.89900
O226        O  0.30561645  0.24457426  0.06081342    -0.92700
C227        C  0.15629519  0.15690099  0.16377995     1.01100
C228        C  0.31693016  0.17320225  0.17694881     1.14000
C229        C  0.17372838  0.31058986  0.18433019     1.04800
O230        O  0.11200559  0.29517672  0.09799816    -0.94900
O231        O  0.16017694  0.32096342  0.03897753    -0.90600
O232        O  0.19814779  0.29292398  0.99654872    -0.83700
C233        C  0.16895362  0.31432713  0.00689526     1.11400
O234        O  0.32816974  0.32255852  0.15691853    -0.96800
Zr235      Zr  0.30204773  0.29701557  0.10182897     1.88900
O236        O  0.29909049  0.29994607  0.00263391    -0.73500
O237        O  0.18673828  0.36915701  0.09784569    -0.52700
O238        O  0.29566666  0.36805082  0.10681184    -0.97400
O239        O  0.37256288  0.28025958  0.10827949    -0.54600
O240        O  0.33001100  0.32596483  0.04993936    -0.74000
C241        C  0.32504425  0.32265176  0.01691430     0.98300
O242        O  0.23826101  0.23847744  0.96140852    -0.62800
O243        O  0.29276135  0.11127529  0.09236323    -0.57600
O244        O  0.28333141  0.20006787  0.99164381    -0.94300
O245        O  0.31206290  0.15879188  0.03096918    -0.92700
O246        O  0.19273658  0.11313271  0.07222405    -0.93100
O247        O  0.15430013  0.16116014  0.02432721    -0.91900
C248        C  0.30416813  0.16970343  0.99961368     1.17200
H249        H  0.23414481  0.15029610  0.13149779     0.33100
H250        H  0.16435416  0.24645277  0.03688953     0.44000
H251        H  0.33016615  0.24482314  0.04759623     0.37500
H252        H  0.24126641  0.31272517  0.15037446     0.34000
H253        H  0.09709027  0.16504112  0.07630021     0.25800
H254        H  0.15917923  0.37771357  0.09235885     0.31700
H255        H  0.26905213  0.37233544  0.11736871     0.37600
H256        H  0.16598440  0.10082753  0.07270762     0.32100
H257        H  0.27830593  0.10329479  0.07091939     0.31000
H258        H  0.37728882  0.15523462  0.08663529     0.32600
H259        H  0.38692858  0.30561721  0.10810674     0.31600
H260        H  0.17701509  0.16412900  0.00800634     0.35600
H261        H  0.20943398  0.23259659  0.95901708     0.28300
H262        H  0.21949103  0.22669850  0.23420217     0.32600
H263        H  0.34888709  0.34199826  0.15058698     0.35400
H264        H  0.32048006  0.10207464  0.08863818     0.28000
H265        H  0.24234878  0.26357168  0.94888062     0.40900
H266        H  0.10442919  0.27424183  0.08132379     0.31000
H267        H  0.10014632  0.20369497  0.09825436     0.38600
H268        H  0.38032881  0.26758060  0.08602767     0.30400
H269        H  0.20268264  0.37721259  0.07730508     0.30500
H270        H  0.25911493  0.25069928  0.22781328     0.30800
Zr271      Zr  0.25437612  0.75055222  0.02078163     2.17500
O272        O  0.23874892  0.76212130  0.95931601    -0.51600
O273        O  0.30473263  0.70477184  0.99947911    -0.74800
O274        O  0.29387545  0.80355718  0.99509678    -0.81600
O275        O  0.16101229  0.68686704  0.02830535    -0.83300
O276        O  0.32138171  0.84092789  0.03810996    -0.79000
O277        O  0.20305815  0.71467606  0.98875587    -0.90600
O278        O  0.33221503  0.67511798  0.04664018    -0.76500
O279        O  0.30797705  0.75342785  0.06180873    -0.86000
O280        O  0.24596537  0.69493305  0.05796511    -0.85700
O281        O  0.24608118  0.81203325  0.05098236    -0.72500
O282        O  0.18992214  0.75669543  0.04763918    -0.84600
Zr283      Zr  0.22787950  0.76683684  0.15712417     2.26400
Zr284      Zr  0.29922985  0.81386961  0.09346284     2.06300
Zr285      Zr  0.18286571  0.70230313  0.08673551     2.10000
Zr286      Zr  0.29904806  0.69817080  0.09893481     1.78800
O287        O  0.11026929  0.70607508  0.08679665    -0.93400
O288        O  0.36915464  0.70888945  0.11300849    -0.41200
O289        O  0.23612255  0.70486592  0.12799487    -0.77900
O290        O  0.29266468  0.75803466  0.13085801    -0.96600
O291        O  0.23505562  0.82197564  0.11977552    -0.89900
O292        O  0.17407868  0.76327737  0.11647876    -0.92700
C293        C  0.32962321  0.68094864  0.01365901     1.01100
C294        C  0.17237465  0.69407937  0.99699209     1.14000
C295        C  0.31461578  0.83298706  0.00581705     1.04800
O296        O  0.37192283  0.81211589  0.09302882    -0.94900
O297        O  0.32234275  0.83018768  0.15247211    -0.90600
O298        O  0.28188655  0.79745209  0.19004198    -0.83700
C299        C  0.31235017  0.81901665  0.18337246     1.11400
O300        O  0.15857761  0.83896071  0.02065085    -0.96800
Zr301      Zr  0.18250428  0.81747925  0.07774974     1.88900
O302        O  0.17522483  0.81241950  0.17360935    -0.73500
O303        O  0.29494417  0.88442872  0.10261164    -0.52700
O304        O  0.19668399  0.88700861  0.06941538    -0.97400
O305        O  0.11028815  0.81107273  0.07187243    -0.54600
O306        O  0.15402083  0.84872681  0.12762602    -0.74000
C307        C  0.15427619  0.83992050  0.15994799     0.98300
O308        O  0.22286206  0.77137219  0.22070309    -0.62800
O309        O  0.18235973  0.63107437  0.08113887    -0.57600
O310        O  0.20069960  0.70771120  0.18336665    -0.94300
O311        O  0.16410801  0.67441313  0.14329645    -0.92700
O312        O  0.29121204  0.62705441  0.09937807    -0.93100
O313        O  0.31652431  0.66522745  0.15330196    -0.91900
C314        C  0.17720779  0.67969854  0.17456453     1.17200
H315        H  0.24669003  0.67091415  0.04455220     0.33100
H316        H  0.31408099  0.75650209  0.14769110     0.44000
H317        H  0.14850439  0.76370858  0.12803981     0.37500
H318        H  0.24687445  0.83421877  0.03537301     0.34000
H319        H  0.38136781  0.68242744  0.11259887     0.25800
H320        H  0.32238008  0.89419993  0.09864127     0.31700
H321        H  0.17106506  0.90056875  0.07396970     0.37600
H322        H  0.28100908  0.62004868  0.07590226     0.32100
H323        H  0.15556052  0.62293479  0.08925187     0.31000
H324        H  0.10131779  0.67847207  0.08867254     0.32600
H325        H  0.10051568  0.80327523  0.09525191     0.31600
H326        H  0.31510898  0.68600068  0.17138472     0.35600
H327        H  0.19451356  0.76629178  0.22645030     0.28300
H328        H  0.26431183  0.75923055  0.94658702     0.32600
H329        H  0.13934233  0.86041215  0.02535019     0.35400
H330        H  0.20086022  0.62169302  0.09952779     0.28000
H331        H  0.23743816  0.74850922  0.23016276     0.40900
H332        H  0.37930247  0.79552779  0.11326491     0.31000
H333        H  0.38025985  0.72224647  0.09222663     0.38600
H334        H  0.10649716  0.78738918  0.05721603     0.30400
H335        H  0.27916880  0.89433791  0.08261107     0.30500
H336        H  0.23181286  0.79031072  0.95752248     0.30800
Zr337      Zr  0.23075116  0.76216327  0.54715843     2.17500
O338        O  0.24335567  0.76048890  0.48428567    -0.51600
O339        O  0.17980830  0.80856434  0.52851705    -0.74800
O340        O  0.19430249  0.71098743  0.51611293    -0.81600
O341        O  0.32446095  0.82605897  0.56107197    -0.83300
O342        O  0.16350121  0.67073024  0.55464432    -0.79000
O343        O  0.28649828  0.79586517  0.51986880    -0.90600
O344        O  0.14948286  0.83697515  0.57499500    -0.76500
O345        O  0.17540207  0.75540678  0.58535765    -0.86000
O346        O  0.23373322  0.81644115  0.58635650    -0.85700
O347        O  0.24077808  0.69901015  0.57402357    -0.72500
O348        O  0.29358740  0.75618103  0.57674172    -0.84600
Zr349      Zr  0.24890923  0.73932610  0.68391106     2.26400
Zr350      Zr  0.18484533  0.69288693  0.61259660     2.06300
Zr351      Zr  0.29540543  0.80963799  0.61725778     2.10000
Zr352      Zr  0.17962892  0.80865852  0.62578632     1.78800
O353        O  0.36764055  0.81539279  0.62267007    -0.93400
O354        O  0.10741620  0.80139919  0.63026329    -0.41200
O355        O  0.24089007  0.80258740  0.65713541    -0.77900
O356        O  0.18644221  0.74660221  0.65341361    -0.96600
O357        O  0.24658241  0.68586034  0.64367543    -0.89900
O358        O  0.30484662  0.74794676  0.64626568    -0.92700
C359        C  0.15431064  0.83213060  0.54222719     1.01100
C360        C  0.31633438  0.81707515  0.52928000     1.14000
C361        C  0.17191700  0.68155428  0.52333033     1.04800
O362        O  0.11268119  0.68753383  0.60718747    -0.94900
O363        O  0.15839239  0.67357384  0.66903601    -0.90600
O364        O  0.19713012  0.70033427  0.71168707    -0.83700
C365        C  0.16691421  0.68029584  0.70122055     1.11400
O366        O  0.32706032  0.66608680  0.55169561    -0.96800
Zr367      Zr  0.30226106  0.69486537  0.60595047     1.88900
O368        O  0.29908396  0.69335138  0.70568048    -0.73500
O369        O  0.19450079  0.62213009  0.61546251    -0.52700
O370        O  0.30028495  0.62338009  0.60500454    -0.97400
O371        O  0.37159209  0.71387714  0.59630999    -0.54600
O372        O  0.33233263  0.66957147  0.65873537    -0.74000
C373        C  0.32675716  0.67243837  0.69173641     0.98300
O374        O  0.22762802  0.74916798  0.74430771    -0.62800
O375        O  0.28705490  0.88072054  0.61460607    -0.57600
O376        O  0.28650466  0.78969510  0.71480777    -0.94300
O377        O  0.31194036  0.83267110  0.67518894    -0.92700
O378        O  0.19470188  0.87802008  0.63381303    -0.93100
O379        O  0.15193289  0.83168383  0.68097956    -0.91900
C380        C  0.30627279  0.82048029  0.70643757     1.17200
H381        H  0.23233310  0.84104107  0.57394341     0.33100
H382        H  0.16419840  0.74581699  0.66933356     0.44000
H383        H  0.32949444  0.74821807  0.65941485     0.37500
H384        H  0.24129120  0.67806700  0.55701549     0.34000
H385        H  0.09917554  0.78916906  0.60790690     0.25800
H386        H  0.16731081  0.61138452  0.61874297     0.31700
H387        H  0.27736512  0.61677685  0.58975083     0.37600
H388        H  0.16861232  0.89148801  0.63170096     0.32100
H389        H  0.31403955  0.89140141  0.61916924     0.31000
H390        H  0.37247608  0.84337123  0.62828087     0.32600
H391        H  0.38746745  0.69014244  0.60169713     0.31600
H392        H  0.17144847  0.82304961  0.69884962     0.35600
H393        H  0.25175826  0.74536688  0.75890766     0.28300
H394        H  0.21697124  0.76330650  0.47283660     0.32600
H395        H  0.35054868  0.65003808  0.55829771     0.35400
H396        H  0.28202884  0.88684690  0.58971061     0.28000
H397        H  0.22093345  0.77739306  0.74644766     0.40900
H398        H  0.10347044  0.71459956  0.60236735     0.31000
H399        H  0.10326019  0.78052056  0.64785261     0.38600
H400        H  0.37812152  0.73241825  0.61539634     0.30400
H401        H  0.20191271  0.61428816  0.59140897     0.30500
H402        H  0.25224615  0.73343821  0.47880573     0.30800
Zr403      Zr  0.24857831  0.25488756  0.67806886     2.17500
O404        O  0.23212589  0.24963955  0.73992970    -0.51600
O405        O  0.30018520  0.29957070  0.69920417    -0.74800
O406        O  0.28437677  0.20062272  0.70682777    -0.81600
O407        O  0.15506022  0.32002327  0.66581704    -0.83300
O408        O  0.31697513  0.16745014  0.66416269    -0.79000
O409        O  0.19497405  0.29145476  0.70666924    -0.90600
O410        O  0.32761772  0.32977634  0.65250065    -0.76500
O411        O  0.30330253  0.24873501  0.63863115    -0.86000
O412        O  0.24426565  0.30972674  0.63928927    -0.85700
O413        O  0.23854730  0.19293484  0.64890452    -0.72500
O414        O  0.18501622  0.25072559  0.64922724    -0.84600
Zr415      Zr  0.22644476  0.23622693  0.54086501     2.26400
Zr416      Zr  0.29276320  0.18818072  0.60800505     2.06300
Zr417      Zr  0.18181577  0.30432766  0.60896454     2.10000
Zr418      Zr  0.29865362  0.30295026  0.59987810     1.78800
O419        O  0.10940855  0.30566190  0.60316716    -0.93400
O420        O  0.36964793  0.28809731  0.59498197    -0.41200
O421        O  0.23637334  0.29834014  0.56940641    -0.77900
O422        O  0.29077332  0.24270554  0.56862301    -0.96600
O423        O  0.22956236  0.18183876  0.57961818    -0.89900
O424        O  0.17148357  0.24319458  0.57971394    -0.92700
C425        C  0.32466741  0.32402506  0.68548612     1.01100
C426        C  0.16483437  0.31248791  0.69752201     1.14000
C427        C  0.30811160  0.17331346  0.69630006     1.04800
O428        O  0.36527964  0.18310486  0.60840195    -0.94900
O429        O  0.31602049  0.16609389  0.55100866    -0.90600
O430        O  0.27795047  0.19811112  0.51117652    -0.83700
C431        C  0.30669627  0.17494223  0.51943769     1.11400
O432        O  0.14750048  0.17192276  0.67624636    -0.96800
Zr433      Zr  0.17572612  0.18984520  0.61979530     1.88900
O434        O  0.17591422  0.18868117  0.52300733    -0.73500
O435        O  0.28496913  0.11712679  0.60842553    -0.52700
O436        O  0.18169715  0.11979481  0.63143242    -0.97400
O437        O  0.10420347  0.20336883  0.62080822    -0.54600
O438        O  0.15019606  0.15642023  0.56959886    -0.74000
C439        C  0.15323679  0.16264134  0.53685424     0.98300
O440        O  0.22701637  0.24518929  0.47759772    -0.62800
O441        O  0.18688343  0.37530326  0.61525586    -0.57600
O442        O  0.19708219  0.29283974  0.51170504    -0.94300
O443        O  0.16547818  0.33109602  0.55167076    -0.92700
O444        O  0.29500104  0.37409047  0.59429588    -0.93100
O445        O  0.32372899  0.32796279  0.54449832    -0.91900
C446        C  0.17584562  0.32275386  0.52020472     1.17200
H447        H  0.24556151  0.33414701  0.65211672     0.33100
H448        H  0.31251202  0.24191000  0.55210513     0.44000
H449        H  0.14650492  0.24339244  0.56705079     0.37500
H450        H  0.23859542  0.17110967  0.66494869     0.34000
H451        H  0.38266145  0.31385381  0.59136630     0.25800
H452        H  0.31255256  0.10684891  0.61027777     0.31700
H453        H  0.19882710  0.10959685  0.61240538     0.37600
H454        H  0.28146910  0.38327004  0.61579481     0.32100
H455        H  0.20653774  0.38329512  0.59732952     0.31000
H456        H  0.10273949  0.33355676  0.59885778     0.32600
H457        H  0.09575615  0.20475895  0.59603917     0.31600
H458        H  0.30447629  0.31826539  0.52683041     0.35600
H459        H  0.25500567  0.25103022  0.47113473     0.28300
H460        H  0.25771982  0.25276784  0.75256812     0.32600
H461        H  0.12543911  0.15351494  0.67094679     0.35400
H462        H  0.16105477  0.38555795  0.60656334     0.28000
H463        H  0.22146558  0.21900247  0.46745169     0.40900
H464        H  0.37447180  0.20508502  0.59357430     0.31000
H465        H  0.37797733  0.28016449  0.61878771     0.38600
H466        H  0.10207068  0.23069437  0.62943270     0.30400
H467        H  0.27274390  0.11112276  0.63134621     0.30500
H468        H  0.22402061  0.22203593  0.74373225     0.30800
Zr469      Zr  0.75968892  0.76456465  0.16221482     2.17500
O470        O  0.74352447  0.76734942  0.22424438    -0.51600
O471        O  0.81454298  0.80640352  0.18060363    -0.74800
O472        O  0.79156015  0.71148106  0.19476097    -0.81600
O473        O  0.66973514  0.83408024  0.14987788    -0.83300
O474        O  0.82116641  0.67076930  0.15568375    -0.79000
O475        O  0.70814447  0.80323047  0.19020679    -0.90600
O476        O  0.84511586  0.83355285  0.13369426    -0.76500
O477        O  0.81459418  0.75401878  0.12411825    -0.86000
O478        O  0.75927129  0.81855358  0.12267462    -0.85700
O479        O  0.74541983  0.70194502  0.13583525    -0.72500
O480        O  0.69621650  0.76212780  0.13323376    -0.84600
Zr481      Zr  0.73893251  0.74248241  0.02605038     2.26400
Zr482      Zr  0.80067253  0.69205319  0.09710310     2.06300
Zr483      Zr  0.69648569  0.81547283  0.09291438     2.10000
Zr484      Zr  0.81291892  0.80688903  0.08326984     1.78800
O485        O  0.62419271  0.82161688  0.08871594    -0.93400
O486        O  0.88329244  0.79063909  0.07607464    -0.41200
O487        O  0.75058573  0.80493932  0.05323348    -0.77900
O488        O  0.80211423  0.74544491  0.05584259    -0.96600
O489        O  0.73831896  0.68891983  0.06617159    -0.89900
O490        O  0.68377762  0.75429327  0.06395278    -0.92700
C491        C  0.84089179  0.82855066  0.16651339     1.01100
C492        C  0.67880658  0.82539201  0.18156951     1.14000
C493        C  0.81277090  0.68124244  0.18720221     1.04800
O494        O  0.87200474  0.67878092  0.10041469    -0.94900
O495        O  0.82688286  0.67083130  0.04102508    -0.90600
O496        O  0.78854595  0.69935337  0.99886895    -0.83700
C497        C  0.81788053  0.67779436  0.00898633     1.11400
O498        O  0.65663601  0.68032786  0.16045840    -0.96800
Zr499      Zr  0.68353084  0.70124306  0.10425512     1.88900
O500        O  0.68756733  0.69781265  0.00511548    -0.73500
O501        O  0.78479199  0.62234407  0.09600417    -0.52700
O502        O  0.68555801  0.62995773  0.10929203    -0.97400
O503        O  0.61373787  0.72013255  0.11139037    -0.54600
O504        O  0.65244601  0.67584591  0.05167258    -0.74000
C505        C  0.65917003  0.67778849  0.01875764     0.98300
O506        O  0.75151226  0.75759355  0.96470449    -0.62800
O507        O  0.70634868  0.88633502  0.09459440    -0.57600
O508        O  0.70539710  0.79582374  0.99517438    -0.94300
O509        O  0.68058154  0.83927045  0.03485722    -0.92700
O510        O  0.80967039  0.87772742  0.07549841    -0.93100
O511        O  0.83883556  0.82730894  0.02670204    -0.91900
C512        C  0.68651418  0.82736155  0.00344487     1.17200
H513        H  0.76231356  0.84319593  0.13488042     0.33100
H514        H  0.82413649  0.74346873  0.03976296     0.44000
H515        H  0.65917096  0.75572213  0.05081681     0.37500
H516        H  0.74373012  0.68125051  0.15296501     0.34000
H517        H  0.89726547  0.81623489  0.07655885     0.25800
H518        H  0.81092758  0.60907252  0.09867406     0.31700
H519        H  0.65892106  0.62093914  0.10142637     0.37600
H520        H  0.78595790  0.88202768  0.06050101     0.32100
H521        H  0.67978590  0.89752998  0.08911166     0.31000
H522        H  0.61874360  0.84981918  0.09281201     0.32600
H523        H  0.59827800  0.69616866  0.10591554     0.31600
H524        H  0.81695480  0.82165788  0.01001657     0.35600
H525        H  0.78081787  0.76026804  0.96230409     0.28300
H526        H  0.76927401  0.76583782  0.23689503     0.32600
H527        H  0.63525566  0.66121783  0.15502045     0.35400
H528        H  0.71067368  0.89282876  0.11953483     0.28000
H529        H  0.74448355  0.73349676  0.95156815     0.40900
H530        H  0.88436701  0.70475292  0.10452514     0.31000
H531        H  0.89105963  0.77785850  0.09828435     0.38600
H532        H  0.60787960  0.73818860  0.09181150     0.30400
H533        H  0.77088079  0.61745152  0.11839074     0.30500
H534        H  0.72938654  0.74251334  0.22935243     0.30800
Zr535      Zr  0.74344959  0.74528091  0.68226882     2.17500
O536        O  0.75801387  0.75376014  0.74438231    -0.51600
O537        O  0.69191545  0.70126809  0.70430608    -0.74800
O538        O  0.70724511  0.79952907  0.70911124    -0.81600
O539        O  0.83507809  0.67832556  0.67293228    -0.83300
O540        O  0.68060134  0.83823297  0.66674364    -0.79000
O541        O  0.79621301  0.71012190  0.71268028    -0.90600
O542        O  0.66285718  0.67114062  0.65818690    -0.76500
O543        O  0.68912751  0.75188038  0.64254245    -0.86000
O544        O  0.74664621  0.68904858  0.64521216    -0.85700
O545        O  0.75524603  0.80613089  0.65207945    -0.72500
O546        O  0.80728956  0.74772115  0.65398644    -0.84600
Zr547      Zr  0.76670322  0.75914509  0.54504240     2.26400
Zr548      Zr  0.70128758  0.81138933  0.61075184     2.06300
Zr549      Zr  0.80945006  0.69259643  0.61533646     2.10000
Zr550      Zr  0.69276999  0.69612475  0.60528579     1.78800
O551        O  0.88193795  0.69272332  0.61060988    -0.93400
O552        O  0.62203701  0.71144165  0.59900722    -0.41200
O553        O  0.75523528  0.69855145  0.57513994    -0.77900
O554        O  0.70230208  0.75520937  0.57278739    -0.96600
O555        O  0.76467087  0.81478351  0.58230362    -0.89900
O556        O  0.82125390  0.75237368  0.58442963    -0.92700
C557        C  0.66677598  0.67703922  0.69111342     1.01100
C558        C  0.82589705  0.68823637  0.70423744     1.14000
C559        C  0.68717555  0.82950860  0.69888437     1.04800
O560        O  0.62870525  0.81498318  0.61091216    -0.94900
O561        O  0.67882156  0.83154240  0.55280822    -0.90600
O562        O  0.71495049  0.79587552  0.51393620    -0.83700
C563        C  0.68704736  0.82037873  0.52151436     1.11400
O564        O  0.84351094  0.83259479  0.67824046    -0.96800
Zr565      Zr  0.81798303  0.80738220  0.62291304     1.88900
O566        O  0.81667369  0.80633837  0.52635440    -0.73500
O567        O  0.71096381  0.88178471  0.60440361    -0.52700
O568        O  0.80604334  0.87787274  0.62537650    -0.97400
O569        O  0.88952954  0.79598288  0.62918450    -0.54600
O570        O  0.84834773  0.83492606  0.57206582    -0.74000
C571        C  0.84223488  0.83021120  0.53945980     0.98300
O572        O  0.77223633  0.74969401  0.48206756    -0.62800
O573        O  0.80596864  0.62138546  0.62096155    -0.57600
O574        O  0.79403245  0.69988392  0.51845706    -0.94300
O575        O  0.82513578  0.66264474  0.55945757    -0.92700
O576        O  0.70096669  0.62529072  0.60067781    -0.93100
O577        O  0.66421824  0.66839035  0.55215907    -0.91900
C578        C  0.81467339  0.66992212  0.52785953     1.17200
H579        H  0.74462111  0.66504231  0.65849234     0.33100
H580        H  0.68054744  0.75569686  0.55634183     0.44000
H581        H  0.84626998  0.75124852  0.57198013     0.37500
H582        H  0.75591908  0.82822152  0.66786960     0.34000
H583        H  0.60818053  0.68604709  0.60223735     0.25800
H584        H  0.68400366  0.89324021  0.60732995     0.31700
H585        H  0.83251454  0.89007719  0.62170450     0.37600
H586        H  0.72637507  0.62171832  0.58785215     0.32100
H587        H  0.83406924  0.61245472  0.61972767     0.31000
H588        H  0.88983978  0.66492812  0.61364431     0.32600
H589        H  0.89805845  0.78391467  0.60686359     0.31600
H590        H  0.68163391  0.67813832  0.53316845     0.35600
H591        H  0.74712856  0.73666968  0.47506087     0.28300
H592        H  0.73196379  0.75254090  0.75654348     0.32600
H593        H  0.86374193  0.85251396  0.67189442     0.35400
H594        H  0.79797053  0.61640958  0.64545233     0.28000
H595        H  0.77090311  0.77620174  0.47155093     0.40900
H596        H  0.62017751  0.79645643  0.59239849     0.31000
H597        H  0.61522384  0.72672112  0.62020945     0.38600
H598        H  0.89166272  0.77446829  0.64644759     0.30400
H599        H  0.72587789  0.88982240  0.62555668     0.30500
H600        H  0.76716536  0.78122422  0.74715364     0.30800
Zr601      Zr  0.76673476  0.23205361  0.16090970     2.17500
O602        O  0.76780713  0.24014973  0.22433654    -0.51600
O603        O  0.81958076  0.18784006  0.17954874    -0.74800
O604        O  0.71555453  0.19447072  0.19160852    -0.81600
O605        O  0.82720832  0.32689744  0.14785915    -0.83300
O606        O  0.67708342  0.16161829  0.15267242    -0.79000
O607        O  0.79447545  0.29024740  0.18818608    -0.90600
O608        O  0.84671629  0.15730027  0.13259960    -0.76500
O609        O  0.76269402  0.17719601  0.12259208    -0.86000
O610        O  0.82090360  0.23877570  0.12103258    -0.85700
O611        O  0.70190236  0.23843202  0.13434701    -0.72500
O612        O  0.75647847  0.29363196  0.13195717    -0.84600
Zr613      Zr  0.74105257  0.25045906  0.02425188     2.26400
Zr614      Zr  0.69869169  0.18351477  0.09520804     2.06300
Zr615      Zr  0.81001122  0.29935655  0.09114180     2.10000
Zr616      Zr  0.81565653  0.18508555  0.08153691     1.78800
O617        O  0.80726938  0.37050998  0.08576400    -0.93400
O618        O  0.80926993  0.11452491  0.07283539    -0.41200
O619        O  0.80555942  0.24543158  0.05125301    -0.77900
O620        O  0.75204800  0.18884985  0.05373601    -0.96600
O621        O  0.68751241  0.24414462  0.06481809    -0.89900
O622        O  0.74646951  0.30551215  0.06257657    -0.92700
C623        C  0.84373046  0.16328487  0.16546927     1.01100
C624        C  0.81615331  0.31957176  0.17930510     1.14000
C625        C  0.68671132  0.17113522  0.18400996     1.04800
O626        O  0.70453498  0.11225776  0.09612266    -0.94900
O627        O  0.67549033  0.15990447  0.03914771    -0.90600
O628        O  0.70337474  0.19760299  0.99685682    -0.83700
C629        C  0.68221111  0.16836033  0.00706388     1.11400
O630        O  0.66913191  0.32616395  0.15830014    -0.96800
Zr631      Zr  0.69322269  0.29870654  0.10330475     1.88900
O632        O  0.69152833  0.29826264  0.00416377    -0.73500
O633        O  0.62596611  0.18258493  0.09570035    -0.52700
O634        O  0.62309829  0.28264865  0.11238499    -0.97400
O635        O  0.70099153  0.36954166  0.10949897    -0.54600
O636        O  0.66130962  0.32473779  0.05152535    -0.74000
C637        C  0.66574668  0.32117037  0.01839234     0.98300
O638        O  0.74502666  0.23387225  0.96226270    -0.62800
O639        O  0.88283027  0.29780704  0.09271568    -0.57600
O640        O  0.79516811  0.28448214  0.99364927    -0.94300
O641        O  0.83537956  0.31420003  0.03364676    -0.92700
O642        O  0.88636991  0.19929605  0.07396216    -0.93100
O643        O  0.84132756  0.16309528  0.02527501    -0.91900
C644        C  0.82577371  0.30513958  0.00223273     1.17200
H645        H  0.84631564  0.23906042  0.13296800     0.33100
H646        H  0.75165685  0.16705842  0.03760530     0.44000
H647        H  0.74488588  0.32996691  0.04993609     0.37500
H648        H  0.68059123  0.23784459  0.15127908     0.34000
H649        H  0.83693541  0.10434813  0.07391727     0.25800
H650        H  0.61887549  0.15516343  0.10156691     0.31700
H651        H  0.60803745  0.30430429  0.10124962     0.37600
H652        H  0.90042418  0.17591007  0.08317299     0.32100
H653        H  0.89122287  0.32435550  0.08524592     0.31000
H654        H  0.83483675  0.37939371  0.09073372     0.32600
H655        H  0.70144755  0.37993216  0.08536007     0.31600
H656        H  0.82002941  0.16972755  0.00830635     0.35600
H657        H  0.74394243  0.25911488  0.94949926     0.28300
H658        H  0.77267698  0.21367781  0.23411812     0.32600
H659        H  0.64543411  0.34216895  0.15220519     0.35400
H660        H  0.89016410  0.29652844  0.11775385     0.28000
H661        H  0.77240550  0.22372234  0.95849932     0.40900
H662        H  0.72167560  0.10635652  0.11654982     0.31000
H663        H  0.79650846  0.10478003  0.09446221     0.38600
H664        H  0.72866008  0.37305219  0.11807583     0.30400
H665        H  0.61829891  0.19798088  0.11661136     0.30500
H666        H  0.74019040  0.24687887  0.23136443     0.30800
Zr667      Zr  0.74967034  0.25268232  0.67930204     2.17500
O668        O  0.75980148  0.24183066  0.74174388    -0.51600
O669        O  0.70041715  0.30058764  0.69948511    -0.74800
O670        O  0.80339097  0.29292291  0.70460801    -0.81600
O671        O  0.68618375  0.15914383  0.67203612    -0.83300
O672        O  0.83893064  0.31909836  0.66010458    -0.79000
O673        O  0.71609496  0.19987894  0.71123987    -0.90600
O674        O  0.66922352  0.32571937  0.65225532    -0.76500
O675        O  0.75311393  0.30436196  0.63728373    -0.86000
O676        O  0.69299903  0.24453391  0.64202831    -0.85700
O677        O  0.81205343  0.24348376  0.64892033    -0.72500
O678        O  0.75578626  0.18890988  0.65292502    -0.84600
Zr679      Zr  0.76559019  0.22472772  0.54241175     2.26400
Zr680      Zr  0.81409591  0.29432555  0.60546956     2.06300
Zr681      Zr  0.70036021  0.18198056  0.61396117     2.10000
Zr682      Zr  0.69662434  0.29588443  0.60030292     1.78800
O683        O  0.70421130  0.11065726  0.61126429    -0.93400
O684        O  0.70293078  0.36656297  0.59232845    -0.41200
O685        O  0.70314307  0.23364499  0.57204581    -0.77900
O686        O  0.75725741  0.28886447  0.56787658    -0.96600
O687        O  0.82210130  0.23113646  0.57955519    -0.89900
O688        O  0.76188771  0.17260586  0.58378102    -0.92700
C689        C  0.67452744  0.32338425  0.68534809     1.01100
C690        C  0.69481684  0.16971298  0.70328339     1.14000
C691        C  0.83186883  0.31442219  0.69264006     1.04800
O692        O  0.81482687  0.36564263  0.60214627    -0.94900
O693        O  0.83363187  0.31474261  0.54696196    -0.90600
O694        O  0.79998344  0.27580008  0.50894387    -0.83700
C695        C  0.82313916  0.30488169  0.51585102     1.11400
O696        O  0.84005233  0.16107136  0.68044007    -0.96800
Zr697      Zr  0.81717384  0.18053436  0.62243900     1.88900
O698        O  0.81341139  0.17448111  0.52541433    -0.73500
O699        O  0.88654101  0.28902736  0.60208303    -0.52700
O700        O  0.88888672  0.19050970  0.62849190    -0.97400
O701        O  0.80769448  0.11017360  0.63063094    -0.54600
O702        O  0.84733617  0.15086728  0.57232333    -0.74000
C703        C  0.83992987  0.15250805  0.53966056     0.98300
O704        O  0.75365193  0.21794357  0.47975168    -0.62800
O705        O  0.62830391  0.18137865  0.62254591    -0.57600
O706        O  0.70718943  0.19405238  0.51696298    -0.94300
O707        O  0.67080188  0.16289546  0.55841781    -0.92700
O708        O  0.62588447  0.28038888  0.59570485    -0.93100
O709        O  0.66683143  0.32003202  0.54634053    -0.91900
C710        C  0.67788861  0.17249368  0.52662177     1.17200
H711        H  0.66835732  0.24545381  0.65512572     0.33100
H712        H  0.75669124  0.30956041  0.55061552     0.44000
H713        H  0.76216977  0.14734370  0.57229747     0.37500
H714        H  0.83461552  0.24498051  0.66456354     0.34000
H715        H  0.67558959  0.37699046  0.59568931     0.25800
H716        H  0.89613326  0.31650010  0.60174099     0.31700
H717        H  0.90055386  0.16379822  0.62826795     0.37600
H718        H  0.61197038  0.30399609  0.60465423     0.32100
H719        H  0.61807333  0.20245563  0.60717952     0.31000
H720        H  0.67625120  0.10172743  0.61384224     0.32600
H721        H  0.80056852  0.09971959  0.60729581     0.31600
H722        H  0.68448005  0.31006767  0.52757329     0.35600
H723        H  0.73874584  0.24179417  0.47279506     0.28300
H724        H  0.75682442  0.26785111  0.75301787     0.32600
H725        H  0.85824023  0.13852485  0.67675407     0.35400
H726        H  0.61902500  0.15675103  0.61144138     0.28000
H727        H  0.78002576  0.22013933  0.46827063     0.40900
H728        H  0.78940735  0.37252707  0.59044121     0.31000
H729        H  0.71781993  0.37576722  0.61314803     0.38600
H730        H  0.78279165  0.10803029  0.64440743     0.30400
H731        H  0.89497615  0.27879040  0.62514622     0.30500
H732        H  0.78832123  0.23483166  0.74458567     0.30800
O733        O  0.92624542  0.08092107  0.29605930    -0.75600
O734        O  0.95717810  0.04453367  0.25394510    -0.54500
C735        C  0.93511643  0.07329527  0.26413077     0.78200
O736        O  0.07451087  0.07101563  0.41200428    -0.60200
O737        O  0.04046466  0.03589552  0.45296762    -0.53200
C738        C  0.06540891  0.06259668  0.44366994     0.70200
O739        O  0.07448874  0.07471642  0.29577104    -0.74700
O740        O  0.04147329  0.04089000  0.25326137    -0.55300
C741        C  0.06603183  0.06744918  0.26370035     0.76200
O742        O  0.91603355  0.06589566  0.41163111    -0.59900
O743        O  0.95299125  0.03293484  0.45234662    -0.53000
C744        C  0.92516986  0.05668541  0.44315078     0.72800
Zr745      Zr  0.93812613  0.05188138  0.35281255     2.54700
O746        O  0.93238875  0.12266527  0.35971638    -0.80400
O747        O  0.86614709  0.04390351  0.34691018    -0.93800
Zr748      Zr  0.05657926  0.05167990  0.35338849     2.64700
O749        O  0.05597127  0.12315525  0.35487987    -0.98800
O750        O  0.12914675  0.04816655  0.35250797    -0.80900
O751        O  0.99758718  0.05407529  0.31964188    -0.84200
O752        O  0.99722685  0.05212908  0.38688519    -2.18900
O753        O  0.91829784  0.91706083  0.40769886    -0.67600
O754        O  0.95283308  0.94941644  0.45015967    -0.52200
C755        C  0.92630851  0.92480138  0.43969442     0.71200
O756        O  0.07023164  0.91411683  0.29180000    -0.60500
O757        O  0.04006603  0.95354610  0.25137806    -0.52500
C758        C  0.06241754  0.92463356  0.26030735     0.73000
O759        O  0.07487373  0.91430138  0.40893661    -0.71900
O760        O  0.03977499  0.94692276  0.45088565    -0.50600
C761        C  0.06508114  0.92085524  0.44086763     0.74400
O762        O  0.92487739  0.91460809  0.29165627    -0.67200
O763        O  0.95573201  0.95258656  0.25086373    -0.54400
C764        C  0.93285242  0.92409618  0.26001261     0.72700
Zr765      Zr  0.93843109  0.93714214  0.35005938     2.77500
O766        O  0.93335065  0.86577336  0.35004703    -0.98000
O767        O  0.86623787  0.94438235  0.34699411    -0.78800
Zr768      Zr  0.05622625  0.93599899  0.35078572     2.70100
O769        O  0.05274323  0.86466908  0.35118176    -0.80100
O770        O  0.12886974  0.93641901  0.34827909    -0.99100
Zr771      Zr  0.99768395  0.99669391  0.28455038     2.21500
Zr772      Zr  0.99789260  0.99236711  0.41910087     2.11100
O773        O  0.99717321  0.93441228  0.38432100    -2.47800
O774        O  0.99751592  0.93701777  0.31660286    -0.79800
O775        O  0.93774224  0.99348083  0.38593614    -0.72000
O776        O  0.05776705  0.99485553  0.31791776    -2.33000
O777        O  0.93689253  0.99553933  0.31666865    -2.29200
O778        O  0.05825135  0.99293808  0.38640702    -0.73800
H779        H  0.99681504  0.07459683  0.40231175     0.78200
H780        H  0.08093441  0.99514765  0.30290865     0.79300
H781        H  0.99676992  0.91110932  0.39867682     0.81500
H782        H  0.91403728  0.99593586  0.30121115     0.79100
H783        H  0.13576758  0.02614675  0.36835518     0.42200
H784        H  0.13622367  0.90877981  0.34345977     0.41100
H785        H  0.02449079  0.85868281  0.35652563     0.40800
H786        H  0.94714975  0.85712474  0.37160368     0.38700
H787        H  0.85976640  0.96373989  0.36546288     0.41900
H788        H  0.86120082  0.04191863  0.32145739     0.36600
H789        H  0.95928568  0.13275261  0.35392335     0.42800
H790        H  0.03677324  0.13013148  0.37353490     0.39200
H791        H  0.90475054  0.86038292  0.35444933     0.44100
H792        H  0.85498993  0.06977509  0.35354333     0.42800
H793        H  0.08238553  0.13059190  0.36444538     0.43000
H794        H  0.13537558  0.95052938  0.32641550     0.43300
O795        O  0.43066410  0.92419540  0.91655555    -0.75600
O796        O  0.38268154  0.95788414  0.88644667    -0.54500
C797        C  0.39431847  0.93190254  0.90864499     0.78200
O798        O  0.56281701  0.08431726  0.91213369    -0.60200
O799        O  0.61147595  0.04484290  0.88917481    -0.53200
C800        C  0.59930819  0.07388868  0.90782550     0.70200
O801        O  0.42991217  0.08245426  0.91260225    -0.74700
O802        O  0.38262612  0.04581018  0.88445080    -0.55300
C803        C  0.39357101  0.07336190  0.90553131     0.76200
O804        O  0.56322748  0.91992611  0.91628161    -0.59900
O805        O  0.61234897  0.95544510  0.88989494    -0.53000
C806        C  0.60004926  0.92781709  0.91018880     0.72800
Zr807      Zr  0.49748877  0.94553856  0.90273746     2.54700
O808        O  0.49825732  0.95746063  0.96548617    -0.80400
O809        O  0.49794099  0.87484682  0.91250608    -0.93800
Zr810      Zr  0.49679782  0.06046115  0.89808120     2.64700
O811        O  0.49856656  0.05850820  0.96166080    -0.98800
O812        O  0.49383340  0.13181573  0.89664377    -0.80900
O813        O  0.45734596  0.00290931  0.90072245    -0.84200
O814        O  0.53665798  0.00306058  0.90259398    -2.18900
O815        O  0.56627916  0.91660100  0.78830652    -0.67600
O816        O  0.61386402  0.95483208  0.81430925    -0.52200
C817        C  0.60260344  0.92612804  0.79479486     0.71200
O818        O  0.43416732  0.07539536  0.77634302    -0.60500
O819        O  0.38519953  0.04295199  0.80629673    -0.52500
C820        C  0.39749308  0.06783810  0.78338720     0.73000
O821        O  0.56713182  0.08008668  0.78505089    -0.71900
O822        O  0.61429180  0.04342453  0.81330966    -0.50600
C823        C  0.60338273  0.07117992  0.79262727     0.74400
O824        O  0.43362531  0.91632505  0.78575473    -0.67200
O825        O  0.38458577  0.95212483  0.81212884    -0.54400
C826        C  0.39683481  0.92369582  0.79263240     0.72700
Zr827      Zr  0.49958679  0.94077754  0.79946918     2.77500
O828        O  0.50065635  0.94586290  0.73599354    -0.98000
O829        O  0.49933561  0.86941591  0.79654395    -0.78800
Zr830      Zr  0.50018839  0.05531771  0.79515939     2.70100
O831        O  0.50717546  0.04336465  0.73272430    -0.80100
O832        O  0.49715120  0.12600833  0.78570055    -0.99100
Zr833      Zr  0.42025118  0.00043519  0.84740734     2.21500
Zr834      Zr  0.57633259  0.99991594  0.85087535     2.11100
O835        O  0.53970581  0.99782360  0.79723557    -2.47800
O836        O  0.45982101  0.99810046  0.79542616    -0.79800
O837        O  0.53718082  0.94170815  0.85185081    -0.72000
O838        O  0.45954793  0.05889594  0.84568266    -2.33000
O839        O  0.45996025  0.94215941  0.85048411    -2.29200
O840        O  0.53745023  0.05856958  0.84763483    -0.73800
H841        H  0.55316433  0.00397805  0.92332545     0.78200
H842        H  0.44283873  0.08200795  0.84446586     0.79300
H843        H  0.55749343  0.99690957  0.77733636     0.81500
H844        H  0.44359703  0.91883916  0.85119166     0.79100
H845        H  0.50443945  0.13885360  0.87334106     0.42200
H846        H  0.51585494  0.13736249  0.80303249     0.41100
H847        H  0.49744270  0.06777574  0.72157262     0.40800
H848        H  0.52923595  0.94861046  0.72990082     0.38700
H849        H  0.48992077  0.86101957  0.81988569     0.41900
H850        H  0.48129020  0.86381687  0.89350529     0.36600
H851        H  0.46978700  0.96015097  0.97200219     0.42800
H852        H  0.49661222  0.08635759  0.96889604     0.39200
H853        H  0.49336964  0.91927388  0.72769329     0.44100
H854        H  0.48226153  0.87065011  0.93409959     0.42800
H855        H  0.47263898  0.04688982  0.96847104     0.43000
H856        H  0.51021520  0.13029221  0.76281877     0.43300
O857        O  0.08351979  0.43453387  0.91561620    -0.75600
O858        O  0.04474101  0.38699054  0.89047733    -0.54500
C859        C  0.07378096  0.39868937  0.90984698     0.78200
O860        O  0.91416307  0.55965495  0.92108031    -0.60200
O861        O  0.94847236  0.60937633  0.89492862    -0.53200
C862        C  0.92032451  0.59603519  0.91451422     0.70200
O863        O  0.91973480  0.43060949  0.92285048    -0.74700
O864        O  0.95394512  0.38411717  0.89202824    -0.55300
C865        C  0.92688787  0.39493261  0.91390349     0.76200
O866        O  0.08327192  0.56580611  0.91465321    -0.59900
O867        O  0.04130188  0.61204593  0.89184095    -0.53000
C868        C  0.07199808  0.60144032  0.90974396     0.72800
Zr869      Zr  0.06066868  0.49983989  0.90130899     2.54700
O870        O  0.06732624  0.50046935  0.96465415    -0.80400
O871        O  0.13277039  0.50302055  0.89345998    -0.93800
Zr872      Zr  0.94453636  0.49631270  0.91133647     2.64700
O873        O  0.96804929  0.49818914  0.97151035    -0.98800
O874        O  0.87847150  0.49489634  0.93768636    -0.80900
O875        O  0.00362025  0.45886502  0.90708875    -0.84200
O876        O  0.00146412  0.53722686  0.90820771    -2.18900
O877        O  0.07354096  0.56587954  0.78827165    -0.67600
O878        O  0.03758474  0.61261146  0.81746702    -0.52200
C879        C  0.06509396  0.60152630  0.79620726     0.71200
O880        O  0.92071990  0.43351207  0.78655681    -0.60500
O881        O  0.95476440  0.38496825  0.81469059    -0.52500
C882        C  0.93004893  0.39740821  0.79143904     0.73000
O883        O  0.90827282  0.56351404  0.79489366    -0.71900
O884        O  0.94804979  0.61072051  0.81907534    -0.50600
C885        C  0.91849496  0.59932548  0.80013071     0.74400
O886        O  0.07181335  0.43511935  0.78238072    -0.67200
O887        O  0.04007564  0.38712222  0.81342766    -0.54400
C888        C  0.06485723  0.39911998  0.79018885     0.72700
Zr889      Zr  0.04933418  0.50022318  0.79890522     2.77500
O890        O  0.03201410  0.50331980  0.73715970    -0.98000
O891        O  0.11978403  0.50096269  0.78323869    -0.78800
Zr892      Zr  0.93296068  0.49863614  0.80854542     2.70100
O893        O  0.92221850  0.50489205  0.74582315    -0.80100
O894        O  0.86170977  0.49001183  0.81806935    -0.99100
Zr895      Zr  0.99760545  0.42216639  0.85406139     2.21500
Zr896      Zr  0.99459499  0.57521823  0.85606883     2.11100
O897        O  0.99047565  0.53832568  0.80300719    -2.47800
O898        O  0.99169510  0.46069369  0.80227977    -0.79800
O899        O  0.05468313  0.53823566  0.85042941    -0.72000
O900        O  0.93741017  0.45936371  0.85910424    -2.33000
O901        O  0.05665745  0.46153351  0.84980197    -2.29200
O902        O  0.93635024  0.53552530  0.86068883    -0.73800
H903        H  0.00302603  0.55392118  0.92862535     0.78200
H904        H  0.91411476  0.44274044  0.85952810     0.79300
H905        H  0.98833765  0.55531771  0.78287887     0.81500
H906        H  0.08034648  0.44546671  0.84803251     0.79100
H907        H  0.85983425  0.49595302  0.91760269     0.42200
H908        H  0.85587734  0.50579886  0.83920552     0.41100
H909        H  0.94122393  0.48620563  0.73505757     0.40800
H910        H  0.05701163  0.49621842  0.72489003     0.38700
H911        H  0.13341632  0.48771724  0.80294162     0.41900
H912        H  0.13855051  0.48469249  0.87402035     0.36600
H913        H  0.09589407  0.49471810  0.96895982     0.42800
H914        H  0.95687443  0.52288418  0.98107014     0.39200
H915        H  0.01427566  0.48049100  0.73334393     0.44100
H916        H  0.14412228  0.49019329  0.91444174     0.42800
H917        H  0.95282528  0.47718113  0.98336677     0.43000
H918        H  0.84884943  0.50456388  0.79870727     0.43300
C919        C  0.67805678  0.10380905  0.72544996    -0.20600
C920        C  0.67859440  0.14456815  0.73133387    -0.07100
C921        C  0.65854767  0.16013582  0.76077735     0.13700
C922        C  0.63633009  0.13478098  0.78214172    -0.20600
C923        C  0.63410054  0.09447676  0.77492141    -0.07100
C924        C  0.65574474  0.07865053  0.74670554     0.13700
C925        C  0.65307881  0.03571087  0.73759919    -0.24000
H926        H  0.69348725  0.09184455  0.70292018     0.15000
H927        H  0.61884774  0.14671909  0.80347865     0.15000
C928        C  0.65810912  0.20352909  0.76845061    -0.23900
H929        H  0.67131098  0.02826342  0.71427791     0.05300
H930        H  0.62159341  0.02767916  0.73191949     0.08500
H931        H  0.66412556  0.01801404  0.75992776     0.08500
H932        H  0.64557412  0.21979674  0.74582426     0.08500
H933        H  0.68892050  0.21386251  0.77378558     0.08500
H934        H  0.63964636  0.21053629  0.79174136     0.05200
C935        C  0.84105760  0.10188809  0.49411553    -0.20600
C936        C  0.86254604  0.12623018  0.51686590    -0.07100
C937        C  0.90470137  0.12485302  0.51743727     0.13700
C938        C  0.92443793  0.09957380  0.49441931    -0.20600
C939        C  0.90292818  0.07666717  0.47059482    -0.07100
C940        C  0.86081072  0.07694623  0.47086445     0.13700
C941        C  0.83671803  0.05068742  0.44709500    -0.24000
H942        H  0.80868920  0.10261138  0.49445437     0.15000
H943        H  0.95680971  0.09921331  0.49368354     0.15000
C944        C  0.92899046  0.15153176  0.54061338    -0.23900
H945        H  0.80419537  0.05333000  0.45223935     0.05300
H946        H  0.84548222  0.01959772  0.45127156     0.08500
H947        H  0.84176702  0.05867501  0.41938921     0.08500
H948        H  0.92309513  0.14478012  0.56844878     0.08500
H949        H  0.92116325  0.18261897  0.53520767     0.08500
H950        H  0.96154714  0.14786992  0.53612106     0.05200
C951        C  0.86279431  0.31957411  0.75210849    -0.20600
C952        C  0.85965331  0.33392962  0.71761427    -0.07100
C953        C  0.88411778  0.36606615  0.70746716     0.13700
C954        C  0.90991673  0.38278196  0.73186689    -0.20600
C955        C  0.91110958  0.37013959  0.76660242    -0.07100
C956        C  0.88816019  0.33748669  0.77681163     0.13700
C957        C  0.88917827  0.32258757  0.81379808    -0.24000
H958        H  0.84493581  0.29461351  0.75998642     0.15000
H959        H  0.92796799  0.40777522  0.72424609     0.15000
C960        C  0.88229689  0.38496094  0.67177460    -0.23900
H961        H  0.86841062  0.29756914  0.81762952     0.05300
H962        H  0.88040659  0.34636619  0.83200525     0.08500
H963        H  0.91981215  0.31254816  0.82036556     0.08500
H964        H  0.85116211  0.39394353  0.66579332     0.08500
H965        H  0.89364376  0.36442162  0.65159521     0.08500
H966        H  0.90107729  0.41176053  0.67018821     0.05200
C967        C  0.65436024  0.15866823  0.94753042    -0.20600
C968        C  0.66511656  0.14230255  0.97994201    -0.07100
C969        C  0.65990674  0.10137986  0.98538324     0.13700
C970        C  0.64171962  0.07881181  0.95930742    -0.20600
C971        C  0.62837007  0.09594127  0.92832951    -0.07100
C972        C  0.63570763  0.13590982  0.92172826     0.13700
C973        C  0.62350562  0.15439983  0.88760286    -0.24000
H974        H  0.65918421  0.18966774  0.94282654     0.15000
H975        H  0.63546651  0.04808617  0.96406101     0.15000
C976        C  0.67306061  0.08093188  0.01839335    -0.23900
H977        H  0.63205747  0.18585767  0.88640192     0.05300
H978        H  0.59067430  0.15239788  0.88410235     0.08500
H979        H  0.63851153  0.13881226  0.86576283     0.08500
H980        H  0.65463647  0.09090495  0.04078399     0.08500
H981        H  0.70510442  0.08704304  0.02345080     0.08500
H982        H  0.66947077  0.04857995  0.01647928     0.05200
C983        C  0.83500336  0.34424124  0.94859583    -0.20600
C984        C  0.85192465  0.32027898  0.97436490    -0.07100
C985        C  0.89396460  0.31563779  0.97570122     0.13700
C986        C  0.91813910  0.33829010  0.95360772    -0.20600
C987        C  0.90118672  0.36510240  0.93019822    -0.07100
C988        C  0.85917235  0.36692408  0.92656512     0.13700
C989        C  0.83969350  0.39352791  0.90007658    -0.24000
H990        H  0.80280387  0.34723111  0.94725840     0.15000
H991        H  0.95036135  0.33646579  0.95596932     0.15000
C992        C  0.91423279  0.28731895  0.00024664    -0.23900
H993        H  0.80673153  0.39003179  0.89981009     0.05300
H994        H  0.85097084  0.38659319  0.87357173     0.08500
H995        H  0.84630185  0.42464665  0.90614627     0.08500
H996        H  0.89285147  0.26919264  0.01529166     0.08500
H997        H  0.93337489  0.30375993  0.01889822     0.08500
H998        H  0.93325451  0.26685755  0.98495064     0.05200
C999        C  0.90017438  0.07943060  0.20801777    -0.20600
C1000       C  0.91671390  0.09824635  0.23717482    -0.07100
C1001       C  0.91157269  0.13928544  0.24135562     0.13700
C1002       C  0.88760914  0.15969379  0.21745694    -0.20600
C1003       C  0.86993857  0.14050689  0.18888648    -0.07100
C1004       C  0.87674700  0.09989916  0.18387385     0.13700
C1005       C  0.85769285  0.07731210  0.15436338    -0.24000
H1006       H  0.90415047  0.04805693  0.20491402     0.15000
H1007       H  0.88308812  0.19099363  0.22092686     0.15000
C1008       C  0.93154752  0.16274119  0.26992926    -0.23900
H1009       H  0.86380019  0.04533198  0.15625954     0.05300
H1010       H  0.86986765  0.08748909  0.12903166     0.08500
H1011       H  0.82481588  0.08146143  0.15493053     0.08500
H1012       H  0.95370043  0.14555480  0.28500969     0.08500
H1013       H  0.90860632  0.17453144  0.28806264     0.08500
H1014       H  0.94803742  0.18771519  0.25818146     0.05200
C1015       C  0.65495932  0.83889080  0.75660654    -0.20600
C1016       C  0.67088267  0.85575434  0.72616724    -0.07100
C1017       C  0.67121631  0.89717427  0.72275533     0.13700
C1018       C  0.65179567  0.92016836  0.74788055    -0.20600
C1019       C  0.63271063  0.90288682  0.77638948    -0.07100
C1020       C  0.63586685  0.86210852  0.78184241     0.13700
C1021       C  0.61879278  0.84325755  0.81414954    -0.24000
H1022       H  0.65607107  0.80732648  0.76002393     0.15000
H1023       H  0.64914307  0.95150499  0.74398223     0.15000
C1024       C  0.69177645  0.91750396  0.69287154    -0.23900
H1025       H  0.62469137  0.81118064  0.81472731     0.05300
H1026       H  0.58600595  0.84771127  0.81520971     0.08500
H1027       H  0.63264353  0.85658359  0.83773743     0.08500
H1028       H  0.67564718  0.91136884  0.66819745     0.08500
H1029       H  0.72320098  0.90729926  0.69098977     0.08500
H1030       H  0.69221333  0.94987260  0.69642717     0.05200
C1031       C  0.83166862  0.65347334  0.76029619    -0.20600
C1032       C  0.85081897  0.67241055  0.73250493    -0.07100
C1033       C  0.89305344  0.67253031  0.73078989     0.13700
C1034       C  0.91481066  0.65031887  0.75496273    -0.20600
C1035       C  0.89537409  0.62879836  0.78097701    -0.07100
C1036       C  0.85352998  0.63148672  0.78455543     0.13700
C1037       C  0.83202449  0.61133391  0.81399051    -0.24000
H1038       H  0.79935747  0.65419671  0.76198257     0.15000
H1039       H  0.94703365  0.64849703  0.75257875     0.15000
C1040       C  0.91613979  0.69580756  0.70411999    -0.23900
H1041       H  0.79949217  0.61768366  0.81362573     0.05300
H1042       H  0.84434121  0.62209186  0.83913860     0.08500
H1043       H  0.83591913  0.57907309  0.81222554     0.08500
H1044       H  0.89689488  0.71490725  0.68785048     0.08500
H1045       H  0.93290255  0.67551401  0.68677253     0.08500
H1046       H  0.93772103  0.71526995  0.71775929     0.05200
C1047       C  0.84399150  0.86990208  0.48610266    -0.20600
C1048       C  0.86464193  0.85515174  0.51509543    -0.07100
C1049       C  0.90536149  0.86478994  0.52002199     0.13700
C1050       C  0.92432425  0.88885858  0.49550879    -0.20600
C1051       C  0.90384886  0.90270065  0.46602947    -0.07100
C1052       C  0.86300728  0.89331824  0.46133104     0.13700
C1053       C  0.83885747  0.90816550  0.43071738    -0.24000
H1054       H  0.81262955  0.86293478  0.48275742     0.15000
H1055       H  0.95571275  0.89577584  0.49871537     0.15000
C1056       C  0.92955553  0.84843106  0.54990522    -0.23900
H1057       H  0.80670327  0.90080523  0.43332733     0.05300
H1058       H  0.84938284  0.89438009  0.40611373     0.08500
H1059       H  0.84135954  0.94059321  0.42894922     0.08500
H1060       H  0.92800614  0.81587891  0.54963471     0.08500
H1061       H  0.91811573  0.85980732  0.57515448     0.08500
H1062       H  0.96149379  0.85693510  0.54805044     0.05200
C1063       C  0.82733023  0.63618072  0.95689484    -0.20600
C1064       C  0.84412220  0.66125678  0.98185945    -0.07100
C1065       C  0.88556822  0.66964716  0.98055793     0.13700
C1066       C  0.90943464  0.65076509  0.95554090    -0.20600
C1067       C  0.89305366  0.62338519  0.93230213    -0.07100
C1068       C  0.85125627  0.61685557  0.93230412     0.13700
C1069       C  0.83096852  0.58890108  0.90738674    -0.24000
H1070       H  0.79549033  0.63041757  0.95743972     0.15000
H1071       H  0.94143495  0.65560461  0.95570010     0.15000
C1072       C  0.90586079  0.69800208  0.00511088    -0.23900
H1073       H  0.80688541  0.60459993  0.89314196     0.05300
H1074       H  0.81747214  0.56435313  0.92230343     0.08500
H1075       H  0.85156115  0.57644147  0.88761612     0.08500
H1076       H  0.92875606  0.68218422  0.02069541     0.08500
H1077       H  0.88509794  0.71262229  0.02341036     0.08500
H1078       H  0.92079831  0.72135147  0.98971669     0.05200
C1079       C  0.67727017  0.89245985  0.97544068    -0.20600
C1080       C  0.66982087  0.85186255  0.97506092    -0.07100
C1081       C  0.64343509  0.83617415  0.94983418     0.13700
C1082       C  0.62343589  0.86174766  0.92700300    -0.20600
C1083       C  0.62922218  0.90256112  0.92860081    -0.07100
C1084       C  0.65746411  0.91800838  0.95233341     0.13700
C1085       C  0.66479491  0.96150751  0.95492107    -0.24000
H1086       H  0.69766843  0.90435490  0.99475238     0.15000
H1087       H  0.60161199  0.85000862  0.90883389     0.15000
C1088       C  0.63416865  0.79288743  0.94843756    -0.23900
H1089       H  0.68709928  0.96867153  0.97546601     0.05300
H1090       H  0.63649504  0.97675897  0.96150231     0.08500
H1091       H  0.67623764  0.97269381  0.92961273     0.08500
H1092       H  0.62233277  0.78299007  0.97405199     0.08500
H1093       H  0.66162316  0.77608804  0.94208803     0.08500
H1094       H  0.61149414  0.78600665  0.92813133     0.05200
C1095       C  0.87449013  0.89074159  0.18053517    -0.20600
C1096       C  0.86730765  0.85138949  0.18939598    -0.07100
C1097       C  0.88500827  0.83529433  0.21962804     0.13700
C1098       C  0.90834466  0.85954287  0.24086481    -0.20600
C1099       C  0.91375140  0.89953865  0.23309826    -0.07100
C1100       C  0.89711050  0.91525385  0.20222101     0.13700
C1101       C  0.90096142  0.95806056  0.19293283    -0.24000
H1102       H  0.86088535  0.90282832  0.15717560     0.15000
H1103       H  0.92162495  0.84740111  0.26434938     0.15000
C1104       C  0.87992826  0.79271419  0.22951956    -0.23900
H1105       H  0.88435787  0.96539765  0.16865130     0.05300
H1106       H  0.93279126  0.96556172  0.18856535     0.08500
H1107       H  0.88867717  0.97640608  0.21438656     0.08500
H1108       H  0.88964102  0.77359472  0.20759136     0.08500
H1109       H  0.84825961  0.78655828  0.23591354     0.08500
H1110       H  0.89799421  0.78490642  0.25287007     0.05200
C1111       C  0.08570638  0.12786811  0.46386099    -0.20600
C1112       C  0.08447326  0.08734536  0.47037365    -0.07100
C1113       C  0.10434769  0.07186555  0.49979168     0.13700
C1114       C  0.12636133  0.09732851  0.52124204    -0.20600
C1115       C  0.12901194  0.13765097  0.51373897    -0.07100
C1116       C  0.10756538  0.15329427  0.48520151     0.13700
C1117       C  0.10659057  0.19673189  0.47759041    -0.24000
H1118       H  0.06978173  0.13964441  0.44150829     0.15000
H1119       H  0.14241817  0.08556506  0.54351529     0.15000
C1120       C  0.10387071  0.02860249  0.50777003    -0.23900
H1121       H  0.08615113  0.20374702  0.45558023     0.05300
H1122       H  0.13675702  0.20721998  0.47021843     0.08500
H1123       H  0.09597346  0.21297191  0.50099393     0.08500
H1124       H  0.11597100  0.01189144  0.48520269     0.08500
H1125       H  0.07283899  0.01896250  0.51311829     0.08500
H1126       H  0.12227857  0.02147750  0.53108431     0.05200
C1127       C  0.33962781  0.10884908  0.70768854    -0.20600
C1128       C  0.32581654  0.14479716  0.72152735    -0.07100
C1129       C  0.33117908  0.15221005  0.75773581     0.13700
C1130       C  0.35216502  0.12472270  0.77820345    -0.20600
C1131       C  0.36805757  0.09046121  0.76337738    -0.07100
C1132       C  0.36143375  0.08224865  0.72783759     0.13700
C1133       C  0.37873875  0.04617522  0.71069975    -0.24000
H1134       H  0.33476877  0.10193207  0.68036462     0.15000
H1135       H  0.35803399  0.13092563  0.80553407     0.15000
C1136       C  0.31641805  0.18924128  0.77489439    -0.23900
H1137       H  0.37017210  0.04397848  0.68270654     0.05300
H1138       H  0.36780364  0.01957131  0.72414823     0.08500
H1139       H  0.41181891  0.04694695  0.71219191     0.08500
H1140       H  0.28337747  0.19024504  0.77348262     0.08500
H1141       H  0.32942206  0.21529585  0.76175803     0.08500
H1142       H  0.32486926  0.19060743  0.80295217     0.05200
C1143       C  0.12912492  0.36815420  0.77760225    -0.20600
C1144       C  0.08813600  0.37010640  0.77083927    -0.07100
C1145       C  0.07184058  0.35023171  0.74190989     0.13700
C1146       C  0.09750308  0.32980353  0.71937600    -0.20600
C1147       C  0.13903211  0.32933838  0.72503913    -0.07100
C1148       C  0.15493657  0.34822390  0.75493711     0.13700
C1149       C  0.19915838  0.35042957  0.76162352    -0.24000
H1150       H  0.14121413  0.38428997  0.79965839     0.15000
H1151       H  0.08526931  0.31533245  0.69649987     0.15000
C1152       C  0.02779833  0.35237115  0.73392286    -0.23900
H1153       H  0.20624782  0.36846408  0.78503338     0.05300
H1154       H  0.21412017  0.36404054  0.73878445     0.08500
H1155       H  0.21132782  0.32061963  0.76622213     0.08500
H1156       H  0.01873999  0.38339690  0.72981564     0.08500
H1157       H  0.01053166  0.34006319  0.75609633     0.08500
H1158       H  0.02002827  0.33551993  0.70999942     0.05200
C1159       C  0.15515271  0.65115618  0.75963787    -0.20600
C1160       C  0.13927495  0.66521210  0.72806808    -0.07100
C1161       C  0.09725952  0.66533925  0.72314673     0.13700
C1162       C  0.07274454  0.64829030  0.74853887    -0.20600
C1163       C  0.08916124  0.63096296  0.77832650    -0.07100
C1164       C  0.13057155  0.63365587  0.78472472     0.13700
C1165       C  0.14969671  0.61700253  0.81718446    -0.24000
H1166       H  0.18711363  0.65215792  0.76411020     0.15000
H1167       H  0.04089952  0.64577721  0.74385367     0.15000
C1168       C  0.07782502  0.68282955  0.69119233    -0.23900
H1169       H  0.17105763  0.59347424  0.80981711     0.05300
H1170       H  0.12757213  0.60455385  0.83564397     0.08500
H1171       H  0.16611457  0.64058504  0.83116770     0.08500
H1172       H  0.08515999  0.66491185  0.66788053     0.08500
H1173       H  0.08812203  0.71351386  0.68749053     0.08500
H1174       H  0.04477038  0.68336512  0.69348337     0.05200
C1175       C  0.09506809  0.91441346  0.49971744    -0.20600
C1176       C  0.08474608  0.89673294  0.46785932    -0.07100
C1177       C  0.09405243  0.85664887  0.46222685     0.13700
C1178       C  0.11598027  0.83633630  0.48748436    -0.20600
C1179       C  0.12852720  0.85471501  0.51835696    -0.07100
C1180       C  0.11699910  0.89402815  0.52507759     0.13700
C1181       C  0.12902297  0.91537349  0.55800846    -0.24000
H1182       H  0.08702391  0.94475750  0.50433992     0.15000
H1183       H  0.12371677  0.80583454  0.48294465     0.15000
C1184       C  0.08044309  0.83461141  0.43014568    -0.23900
H1185       H  0.11943097  0.94658653  0.55762492     0.05300
H1186       H  0.16200399  0.91478525  0.56093850     0.08500
H1187       H  0.11479391  0.90143570  0.58102973     0.08500
H1188       H  0.09643030  0.84556198  0.40677854     0.08500
H1189       H  0.04770242  0.83811342  0.42671164     0.08500
H1190       H  0.08687952  0.80270039  0.43212601     0.05200
C1191       C  0.31073139  0.88220377  0.73970590    -0.20600
C1192       C  0.32447694  0.84373672  0.73444762    -0.07100
C1193       C  0.35846267  0.83028735  0.75263737     0.13700
C1194       C  0.37948287  0.85665866  0.77374709    -0.20600
C1195       C  0.36776185  0.89618593  0.77686577    -0.07100
C1196       C  0.33174110  0.90859815  0.76110716     0.13700
C1197       C  0.31642986  0.94988190  0.76516903    -0.24000
H1198       H  0.28431228  0.89204581  0.72584088     0.15000
H1199       H  0.40656264  0.84666451  0.78654287     0.15000
C1200       C  0.37499158  0.78927640  0.74873835    -0.23900
H1201       H  0.28868720  0.95484215  0.74986260     0.05300
H1202       H  0.33923358  0.97091786  0.75595721     0.08500
H1203       H  0.30964635  0.95578653  0.79307036     0.08500
H1204       H  0.40581219  0.79076869  0.73815854     0.08500
H1205       H  0.35717281  0.77044989  0.73101636     0.08500
H1206       H  0.37594843  0.77484602  0.77472859     0.05200
C1207       C  0.10589986  0.67999938  0.97258714    -0.20600
C1208       C  0.14753438  0.67703408  0.96906119    -0.07100
C1209       C  0.16382815  0.65317312  0.94244530     0.13700
C1210       C  0.13797033  0.63063045  0.92169751    -0.20600
C1211       C  0.09646232  0.63172583  0.92681494    -0.07100
C1212       C  0.08009363  0.65751076  0.95185830     0.13700
C1213       C  0.03578828  0.65920773  0.95863266    -0.24000
H1214       H  0.09360243  0.69850454  0.99300163     0.15000
H1215       H  0.15026662  0.61063128  0.90243837     0.15000
C1216       C  0.20829453  0.64935084  0.93734978    -0.23900
H1217       H  0.02833871  0.68014213  0.97994216     0.05300
H1218       H  0.02474601  0.62975248  0.96637383     0.08500
H1219       H  0.01992336  0.66894377  0.93468776     0.08500
H1220       H  0.22253029  0.63871421  0.96179495     0.08500
H1221       H  0.22111106  0.67826921  0.93019382     0.08500
H1222       H  0.21570459  0.62829334  0.91612496     0.05200
C1223       C  0.34929988  0.92503601  0.95835132    -0.20600
C1224       C  0.36491702  0.90876670  0.92781504    -0.07100
C1225       C  0.36105329  0.86817488  0.92148293     0.13700
C1226       C  0.34350404  0.84429907  0.94700553    -0.20600
C1227       C  0.33053247  0.86007815  0.97898672    -0.07100
C1228       C  0.33195660  0.90135930  0.98404447     0.13700
C1229       C  0.31549498  0.92099853  0.01623332    -0.24000
H1230       H  0.35323004  0.95605531  0.96322427     0.15000
H1231       H  0.34147213  0.81293682  0.94255029     0.15000
C1232       C  0.37662525  0.84998543  0.88824643    -0.23900
H1233       H  0.31636982  0.95351606  0.01414597     0.05300
H1234       H  0.33368760  0.91280222  0.03928032     0.08500
H1235       H  0.28388726  0.91224357  0.02005030     0.08500
H1236       H  0.40935394  0.85426691  0.88633277     0.08500
H1237       H  0.36199222  0.86397598  0.86537278     0.08500
H1238       H  0.37057571  0.81795764  0.88716918     0.05200
C1239       C  0.10352372  0.92340970  0.20737817    -0.20600
C1240       C  0.08190809  0.90248124  0.23245978    -0.07100
C1241       C  0.08125658  0.86106003  0.23165353     0.13700
C1242       C  0.10482047  0.84144333  0.20713010    -0.20600
C1243       C  0.12812887  0.86233956  0.18316549    -0.07100
C1244       C  0.12668074  0.90380586  0.18250987     0.13700
C1245       C  0.15066781  0.92758450  0.15682524    -0.24000
H1246       H  0.10338781  0.95523869  0.20807149     0.15000
H1247       H  0.10523146  0.80961212  0.20670872     0.15000
C1248       C  0.05517552  0.83751924  0.25593699    -0.23900
H1249       H  0.14773993  0.95960796  0.16171831     0.05300
H1250       H  0.13989053  0.92186394  0.12988512     0.08500
H1251       H  0.18277197  0.91976695  0.15888520     0.08500
H1252       H  0.02365552  0.84727969  0.25337995     0.08500
H1253       H  0.06518286  0.84127742  0.28334274     0.08500
H1254       H  0.05637736  0.80565440  0.24982386     0.05200
C1255       C  0.16140276  0.34731993  0.94987335    -0.20600
C1256       C  0.14326807  0.33166812  0.97980189    -0.07100
C1257       C  0.10109731  0.33206035  0.98275968     0.13700
C1258       C  0.07846811  0.35087467  0.95701167    -0.20600
C1259       C  0.09703811  0.36962385  0.92898069    -0.07100
C1260       C  0.13871049  0.36676017  0.92452041     0.13700
C1261       C  0.15916903  0.38465138  0.89330972    -0.24000
H1262       H  0.19357967  0.34584159  0.94707927     0.15000
H1263       H  0.04636140  0.35332452  0.96002237     0.15000
C1264       C  0.07962349  0.31298997  0.01285825    -0.23900
H1265       H  0.19175461  0.37856860  0.89338169     0.05300
H1266       H  0.15507903  0.41692552  0.89333030     0.08500
H1267       H  0.14630756  0.37225428  0.86892333     0.08500
H1268       H  0.08640715  0.32887765  0.03745261     0.08500
H1269       H  0.08885537  0.28178215  0.01508208     0.08500
H1270       H  0.04670860  0.31371269  0.00929999     0.05200
C1271       C  0.36304289  0.13744331  0.91980438    -0.20600
C1272       C  0.36303710  0.09654164  0.92417530    -0.07100
C1273       C  0.34005147  0.07977630  0.95113620     0.13700
C1274       C  0.31903159  0.10438491  0.97413170    -0.20600
C1275       C  0.32080638  0.14543130  0.97100378    -0.07100
C1276       C  0.34219931  0.16217641  0.94287189     0.13700
C1277       C  0.34570689  0.20603508  0.93856972    -0.24000
H1278       H  0.38128983  0.15016537  0.89936410     0.15000
H1279       H  0.30258459  0.09158970  0.99567665     0.15000
C1280       C  0.34015277  0.03617982  0.95727158    -0.23900
H1281       H  0.36538033  0.21392004  0.91632277     0.05300
H1282       H  0.35853326  0.21927121  0.96263287     0.08500
H1283       H  0.31585811  0.21893572  0.93341046     0.08500
H1284       H  0.37110726  0.02611122  0.96261465     0.08500
H1285       H  0.32847750  0.02082600  0.93378747     0.08500
H1286       H  0.32125765  0.02791597  0.97993019     0.05200
C1287       C  0.11665966  0.15213462  0.21750539    -0.20600
C1288       C  0.13129710  0.13349244  0.18752879    -0.07100
C1289       C  0.12241898  0.09338843  0.18157374     0.13700
C1290       C  0.10011444  0.07279006  0.20652980    -0.20600
C1291       C  0.08674905  0.09120920  0.23717501    -0.07100
C1292       C  0.09445383  0.13168573  0.24236987     0.13700
C1293       C  0.07907279  0.15395360  0.27369086    -0.24000
H1294       H  0.12285936  0.18304251  0.22160113     0.15000
H1295       H  0.09406077  0.04183660  0.20258382     0.15000
C1296       C  0.13751431  0.07167024  0.14986436    -0.23900
H1297       H  0.08420874  0.18603630  0.27121799     0.05300
H1298       H  0.09497952  0.14417238  0.29754930     0.08500
H1299       H  0.04643592  0.14925534  0.27656954     0.08500
H1300       H  0.17052221  0.07409334  0.14831614     0.08500
H1301       H  0.12376920  0.08401342  0.12588750     0.08500
H1302       H  0.12977799  0.03998659  0.15077157     0.05200
C1303       C  0.17644304  0.38894316  0.44004387    -0.20600
C1304       C  0.13736201  0.40342336  0.44022557    -0.07100
C1305       C  0.11047827  0.39088100  0.46624577     0.13700
C1306       C  0.12368224  0.36436952  0.49198310    -0.20600
C1307       C  0.16301483  0.34978788  0.49190618    -0.07100
C1308       C  0.18970235  0.36236945  0.46545293     0.13700
C1309       C  0.23270675  0.34940969  0.46448135    -0.24000
H1310       H  0.19689466  0.39912506  0.42007602     0.15000
H1311       H  0.10318109  0.35481833  0.51214431     0.15000
C1312       C  0.06803110  0.40540885  0.46666680    -0.23900
H1313       H  0.24983386  0.36490054  0.44384468     0.05300
H1314       H  0.23437862  0.31767882  0.45857000     0.08500
H1315       H  0.24729229  0.35563242  0.48995649     0.08500
H1316       H  0.05301221  0.39724094  0.44181368     0.08500
H1317       H  0.06762314  0.43783116  0.46956235     0.08500
H1318       H  0.05078104  0.39250966  0.48859904     0.05200
C1319       C  0.17964389  0.61346972  0.25481596    -0.20600
C1320       C  0.14038308  0.59959166  0.25569475    -0.07100
C1321       C  0.11329762  0.61104759  0.22932129     0.13700
C1322       C  0.12597131  0.63709524  0.20302831    -0.20600
C1323       C  0.16527969  0.65160031  0.20238110    -0.07100
C1324       C  0.19267918  0.63880209  0.22835233     0.13700
C1325       C  0.23629337  0.64977040  0.22749582    -0.24000
H1326       H  0.20048941  0.60354456  0.27463264     0.15000
H1327       H  0.10504250  0.64636431  0.18304654     0.15000
C1328       C  0.07118225  0.59569305  0.22901333    -0.23900
H1329       H  0.25377897  0.63374965  0.24762737     0.05300
H1330       H  0.24002097  0.68144401  0.23285803     0.08500
H1331       H  0.24915607  0.64239830  0.20157151     0.08500
H1332       H  0.05590956  0.60412760  0.25364419     0.08500
H1333       H  0.07149698  0.56320841  0.22669698     0.08500
H1334       H  0.05373575  0.60767313  0.20674168     0.05200
C1335       C  0.11085731  0.61388272  0.46337372    -0.20600
C1336       C  0.13783097  0.60827343  0.43564482    -0.07100
C1337       C  0.17456960  0.62869860  0.43613580     0.13700
C1338       C  0.18361329  0.65333697  0.46442978    -0.20600
C1339       C  0.15774721  0.65746747  0.49314236    -0.07100
C1340       C  0.12036977  0.63803520  0.49219053     0.13700
C1341       C  0.09021652  0.64291027  0.52106099    -0.24000
H1342       H  0.08280033  0.59805785  0.46302284     0.15000
H1343       H  0.21229568  0.66806102  0.46472826     0.15000
C1344       C  0.20599071  0.62391449  0.40824069    -0.23900
H1345       H  0.06175166  0.62768695  0.51488832     0.05300
H1346       H  0.08351453  0.67454977  0.52492061     0.08500
H1347       H  0.10192305  0.63022736  0.54571395     0.08500
H1348       H  0.21152654  0.65269980  0.39557614     0.08500
H1349       H  0.19778363  0.60257960  0.38764174     0.08500
H1350       H  0.23419646  0.61347243  0.42035871     0.05200
C1351       C  0.16885700  0.37253417  0.26804926    -0.20600
C1352       C  0.13389695  0.39427255  0.26265680    -0.07100
C1353       C  0.11065791  0.38670177  0.23248849     0.13700
C1354       C  0.12355197  0.35819168  0.20828632    -0.20600
C1355       C  0.15922193  0.33685896  0.21318284    -0.07100
C1356       C  0.18192129  0.34420816  0.24392000     0.13700
C1357       C  0.22086338  0.32377869  0.25123205    -0.24000
H1358       H  0.18678636  0.37874505  0.29101332     0.15000
H1359       H  0.10579579  0.35311628  0.18500786     0.15000
C1360       C  0.07257387  0.40860910  0.22472680    -0.23900
H1361       H  0.23584169  0.33552378  0.27495504     0.05300
H1362       H  0.24166691  0.32765751  0.22893049     0.08500
H1363       H  0.21497022  0.29230533  0.25602200     0.08500
H1364       H  0.06447021  0.42984327  0.24551425     0.08500
H1365       H  0.04757927  0.38742954  0.22207523     0.08500
H1366       H  0.07586204  0.42495109  0.19980443     0.05200
C1367       C  0.38900280  0.87643631  0.47359627    -0.20600
C1368       C  0.39680555  0.84954078  0.44667370    -0.07100
C1369       C  0.37873088  0.81217588  0.44733732     0.13700
C1370       C  0.35204715  0.80309412  0.47424599    -0.20600
C1371       C  0.34412501  0.82978840  0.50140443    -0.07100
C1372       C  0.36327471  0.86687604  0.50130212     0.13700
C1373       C  0.35647063  0.89667524  0.52983828    -0.24000
H1374       H  0.40382034  0.90470563  0.47321293     0.15000
H1375       H  0.33818488  0.77435503  0.47465469     0.15000
C1376       C  0.38883008  0.78126680  0.42050558    -0.23900
H1377       H  0.37232376  0.92464249  0.52446324     0.05300
H1378       H  0.36787351  0.88529211  0.55511110     0.09100
H1379       H  0.32411405  0.90326334  0.53207950     0.08500
H1380       H  0.42145533  0.77545021  0.42085493     0.08500
H1381       H  0.37988832  0.79125166  0.39406403     0.08500
H1382       H  0.37321416  0.75315661  0.42579802     0.05200
C1383       C  0.60646801  0.88462420  0.23839847    -0.20600
C1384       C  0.60070067  0.85833192  0.26611239    -0.07100
C1385       C  0.62181194  0.82252532  0.26665887     0.13700
C1386       C  0.64756539  0.81345110  0.23905726    -0.20600
C1387       C  0.65263858  0.83898985  0.21052451    -0.07100
C1388       C  0.63219956  0.87543941  0.21049424     0.13700
C1389       C  0.63767243  0.90498003  0.18164625    -0.24000
H1390       H  0.58995886  0.91200188  0.23825846     0.15000
H1391       H  0.66282716  0.78539937  0.23926521     0.15000
C1392       C  0.61607884  0.79313073  0.29567698    -0.23900
H1393       H  0.62126539  0.93266688  0.18710256     0.05300
H1394       H  0.62609581  0.89304946  0.15662936     0.08500
H1395       H  0.66981948  0.91224790  0.17890085     0.08500
H1396       H  0.58419946  0.78441983  0.29717522     0.08500
H1397       H  0.62538005  0.80607893  0.32101723     0.08500
H1398       H  0.63411453  0.76616857  0.29143613     0.05200
C1399       C  0.64489046  0.87312091  0.49476751    -0.20600
C1400       C  0.66107820  0.83498310  0.49265502    -0.07100
C1401       C  0.64928213  0.81036072  0.46448489     0.13700
C1402       C  0.62137915  0.82398553  0.44012570    -0.20600
C1403       C  0.60472415  0.86144129  0.44279437    -0.07100
C1404       C  0.61692732  0.88666385  0.47001714     0.13700
C1405       C  0.60014061  0.92751302  0.47297607    -0.24000
H1406       H  0.65374520  0.89219625  0.51609941     0.15000
H1407       H  0.61157262  0.80487804  0.41911065     0.15000
C1408       C  0.66470301  0.76916384  0.46007640    -0.23900
H1409       H  0.61306749  0.94363425  0.49555586     0.05300
H1410       H  0.56728150  0.92613914  0.47648343     0.08500
H1411       H  0.60696865  0.94421825  0.44881482     0.08500
H1412       H  0.66015011  0.75201950  0.48440347     0.08500
H1413       H  0.69667520  0.77055372  0.45314015     0.08500
H1414       H  0.64933848  0.75331277  0.43853742     0.05200
C1415       C  0.37719372  0.81275848  0.26510370    -0.20600
C1416       C  0.39263284  0.85087946  0.26694996    -0.07100
C1417       C  0.38110729  0.87885649  0.24161051     0.13700
C1418       C  0.35436325  0.86792219  0.21499108    -0.20600
C1419       C  0.33887245  0.82969481  0.21301734    -0.07100
C1420       C  0.35088725  0.80160155  0.23831190     0.13700
C1421       C  0.33819319  0.75919863  0.23618366    -0.24000
H1422       H  0.38694665  0.79125097  0.28416085     0.15000
H1423       H  0.34570402  0.88939999  0.19551269     0.15000
C1424       C  0.39676271  0.92028157  0.24173631    -0.23900
H1425       H  0.35316278  0.74093051  0.25634660     0.05300
H1426       H  0.34603236  0.74690836  0.21018808     0.08500
H1427       H  0.30565391  0.75674579  0.24055190     0.08500
H1428       H  0.41311359  0.92592075  0.21702628     0.08500
H1429       H  0.41730222  0.92625491  0.26384273     0.08500
H1430       H  0.37137559  0.94114127  0.24369875     0.05200
C1431       C  0.86698889  0.62886065  0.49983389    -0.20600
C1432       C  0.82722307  0.64199752  0.50033996    -0.07100
C1433       C  0.80020347  0.62800347  0.47474210     0.13700
C1434       C  0.81416599  0.60307785  0.44827202    -0.20600
C1435       C  0.85405471  0.59072853  0.44729112    -0.07100
C1436       C  0.88071724  0.60317965  0.47372494     0.13700
C1437       C  0.92357471  0.58987380  0.47519889    -0.24000
H1438       H  0.88759859  0.63895253  0.51978844     0.15000
H1439       H  0.79362371  0.59227507  0.42856780     0.15000
C1440       C  0.75622550  0.63731265  0.47623446    -0.23900
H1441       H  0.94355905  0.61582119  0.47406185     0.05300
H1442       H  0.93164794  0.56999657  0.45336241     0.08500
H1443       H  0.92897874  0.57404731  0.50011645     0.08500
H1444       H  0.75120899  0.66898251  0.47178952     0.08500
H1445       H  0.74404652  0.62885082  0.50213284     0.08500
H1446       H  0.73917752  0.62114699  0.45588723     0.05200
C1447       C  0.81634037  0.38420559  0.26027192    -0.20600
C1448       C  0.85543499  0.39860460  0.25983508    -0.07100
C1449       C  0.88166242  0.38740322  0.23275310     0.13700
C1450       C  0.86803995  0.36157277  0.20676512    -0.20600
C1451       C  0.82887470  0.34682204  0.20726520    -0.07100
C1452       C  0.80250229  0.35877841  0.23421053     0.13700
C1453       C  0.75922096  0.34663613  0.23490909    -0.24000
H1454       H  0.79628415  0.39374267  0.28083655     0.15000
H1455       H  0.88825137  0.35271133  0.18608219     0.15000
C1456       C  0.92392988  0.40224451  0.23053046    -0.23900
H1457       H  0.74242097  0.36188810  0.25594528     0.05300
H1458       H  0.75680630  0.31479079  0.23998980     0.08500
H1459       H  0.74473296  0.35392979  0.20961536     0.08500
H1460       H  0.93189988  0.42218417  0.25236506     0.08500
H1461       H  0.92801046  0.41848213  0.20565371     0.08500
H1462       H  0.94491906  0.37700978  0.23109110     0.05200
C1463       C  0.87490321  0.34827912  0.48943148    -0.20600
C1464       C  0.83726989  0.33015211  0.48656048    -0.07100
C1465       C  0.81257896  0.33980712  0.45760721     0.13700
C1466       C  0.82572714  0.36759275  0.43320088    -0.20600
C1467       C  0.86271599  0.38627707  0.43673224    -0.07100
C1468       C  0.88796607  0.37608631  0.46488187     0.13700
C1469       C  0.92843030  0.39448862  0.47005581    -0.24000
H1470       H  0.89408971  0.34121623  0.51138537     0.15000
H1471       H  0.80642504  0.37587779  0.41165582     0.15000
C1472       C  0.77158767  0.32255570  0.45274563    -0.23900
H1473       H  0.92907125  0.41036991  0.49541005     0.05300
H1474       H  0.93626276  0.41552998  0.44908922     0.08500
H1475       H  0.95163451  0.37119696  0.47037799     0.08500
H1476       H  0.75321326  0.32749371  0.47648804     0.08500
H1477       H  0.77447693  0.29081032  0.44719381     0.08500
H1478       H  0.75553888  0.33591648  0.43028473     0.05200
C1479       C  0.81965663  0.62330297  0.27281859    -0.20600
C1480       C  0.85553909  0.60292424  0.26827268    -0.07100
C1481       C  0.87853977  0.60992891  0.23792874     0.13700
C1482       C  0.86421019  0.63609494  0.21239916    -0.20600
C1483       C  0.82773591  0.65613501  0.21652213    -0.07100
C1484       C  0.80552087  0.64984571  0.24768504     0.13700
C1485       C  0.76618065  0.66967318  0.25461067    -0.24000
H1486       H  0.80193022  0.61740946  0.29592084     0.15000
H1487       H  0.88169420  0.64068876  0.18893596     0.15000
C1488       C  0.91789954  0.58975901  0.23144854    -0.23900
H1489       H  0.75150137  0.65828436  0.27856037     0.05300
H1490       H  0.74539640  0.66487706  0.23239173     0.08500
H1491       H  0.77152943  0.70131987  0.25891873     0.08500
H1492       H  0.91562149  0.57122904  0.20763362     0.08500
H1493       H  0.92735269  0.57089251  0.25354532     0.08500
H1494       H  0.94151920  0.61213818  0.22742469     0.05200
C1495       C  0.64036795  0.18787245  0.47298665    -0.20600
C1496       C  0.64968461  0.16024070  0.49895155    -0.07100
C1497       C  0.63261497  0.12230348  0.49721419     0.13700
C1498       C  0.60607550  0.11338365  0.46984352    -0.20600
C1499       C  0.59641995  0.14142800  0.44439807    -0.07100
C1500       C  0.61386623  0.17910351  0.44588871     0.13700
C1501       C  0.60464897  0.21105864  0.41981580    -0.24000
H1502       H  0.65333585  0.21701196  0.47417916     0.15000
H1503       H  0.59249620  0.08456075  0.46836834     0.15000
C1504       C  0.64305669  0.09089557  0.52335788    -0.23900
H1505       H  0.63260148  0.22012064  0.40651989     0.05300
H1506       H  0.59190164  0.23682118  0.43369103     0.08500
H1507       H  0.58299802  0.20202453  0.39944827     0.08500
H1508       H  0.63258940  0.09956178  0.54976066     0.08500
H1509       H  0.67588694  0.08634669  0.52383387     0.08500
H1510       H  0.62878396  0.06242313  0.51671551     0.05200
C1511       C  0.35032213  0.18672154  0.23317176    -0.20600
C1512       C  0.34446782  0.16059928  0.20514702    -0.07100
C1513       C  0.36512705  0.12425715  0.20496528     0.13700
C1514       C  0.39121376  0.11538007  0.23266833    -0.20600
C1515       C  0.39708974  0.14186029  0.26027091    -0.07100
C1516       C  0.37649344  0.17795602  0.26054704     0.13700
C1517       C  0.38303779  0.20783327  0.28912560    -0.24000
H1518       H  0.33501391  0.21476755  0.23328377     0.15000
H1519       H  0.40755160  0.08789892  0.23266978     0.15000
C1520       C  0.35932522  0.09438816  0.17631920    -0.23900
H1521       H  0.36560339  0.23508799  0.28450503     0.05300
H1522       H  0.41511736  0.21587569  0.29042226     0.08500
H1523       H  0.37360411  0.19566744  0.31468041     0.08500
H1524       H  0.37036082  0.10616516  0.15110774     0.08500
H1525       H  0.32718701  0.08685706  0.17398581     0.08500
H1526       H  0.37604372  0.06686763  0.18168808     0.05200
C1527       C  0.37889006  0.11430015  0.46385127    -0.20600
C1528       C  0.38802277  0.14138316  0.43744992    -0.07100
C1529       C  0.36809977  0.17796717  0.43674747     0.13700
C1530       C  0.34055195  0.18695305  0.46306164    -0.20600
C1531       C  0.33268664  0.16078910  0.49058100    -0.07100
C1532       C  0.35143152  0.12348743  0.49047343     0.13700
C1533       C  0.34222805  0.09303812  0.51781670    -0.24000
H1534       H  0.39409101  0.08619971  0.46403458     0.15000
H1535       H  0.32638708  0.21558911  0.46282877     0.15000
C1536       C  0.37610606  0.20889420  0.40945336    -0.23900
H1537       H  0.35727824  0.06468587  0.51208812     0.05300
H1538       H  0.30955754  0.08761184  0.51865762     0.08500
H1539       H  0.35274246  0.10305692  0.54382952     0.08500
H1540       H  0.34809950  0.21532681  0.39498863     0.08500
H1541       H  0.39908643  0.20017213  0.39017527     0.08500
H1542       H  0.38655793  0.23620821  0.42240583     0.05200
C1543       C  0.61258932  0.11351606  0.24011093    -0.20600
C1544       C  0.60535130  0.14071793  0.26690046    -0.07100
C1545       C  0.62678001  0.17634174  0.26756931     0.13700
C1546       C  0.65461585  0.18411412  0.24115221    -0.20600
C1547       C  0.66081678  0.15779695  0.21328151    -0.07100
C1548       C  0.63989884  0.12159831  0.21314437     0.13700
C1549       C  0.64631501  0.09115907  0.18508160    -0.24000
H1550       H  0.59588167  0.08628417  0.23983946     0.15000
H1551       H  0.67015053  0.21200146  0.24137681     0.15000
C1552       C  0.61886529  0.20709121  0.29511016    -0.23900
H1553       H  0.62965718  0.06370050  0.19068305     0.05300
H1554       H  0.67852311  0.08368417  0.18335448     0.08500
H1555       H  0.63559310  0.10227007  0.15950852     0.08500
H1556       H  0.62578114  0.19530535  0.32142977     0.08500
H1557       H  0.58701988  0.21610595  0.29414828     0.08500
H1558       H  0.63746257  0.23368668  0.29114441     0.05200
C1559       C  0.62362168  0.38514886  0.94431971    -0.20600
C1560       C  0.58736246  0.39727168  0.95915067    -0.07100
C1561       C  0.57620086  0.38262692  0.99222388     0.13700
C1562       C  0.60182023  0.35693189  0.00995641    -0.20600
C1563       C  0.63879974  0.34537345  0.99584598    -0.07100
C1564       C  0.64943774  0.35918947  0.96207597     0.13700
C1565       C  0.68835665  0.34807332  0.94498603    -0.24000
H1566       H  0.63213435  0.39686253  0.91908685     0.15000
H1567       H  0.59302098  0.34626512  0.03548056     0.15000
C1568       C  0.53784778  0.39518133  0.00956559    -0.23900
H1569       H  0.69231128  0.36297405  0.91942393     0.05300
H1570       H  0.68909473  0.31597096  0.94006608     0.08500
H1571       H  0.71375865  0.35660634  0.96204275     0.08500
H1572       H  0.51209539  0.38537643  0.99364424     0.08500
H1573       H  0.53708799  0.42762125  0.01231535     0.08500
H1574       H  0.53452214  0.38218459  0.03600226     0.05200
C1575       C  0.41673170  0.61937298  0.98067534    -0.20600
C1576       C  0.40118347  0.60458715  0.94933065    -0.07100
C1577       C  0.36415504  0.61859885  0.93697332     0.13700
C1578       C  0.34208358  0.64497401  0.95773907    -0.20600
C1579       C  0.35632448  0.65752642  0.99058583    -0.07100
C1580       C  0.39508757  0.64576313  0.00136156     0.13700
C1581       C  0.41434292  0.66089718  0.03439256    -0.24000
H1582       H  0.44559649  0.60898540  0.98964465     0.15000
H1583       H  0.31292181  0.65456626  0.94887518     0.15000
C1584       C  0.34808454  0.60561569  0.90207859    -0.23900
H1585       H  0.44607842  0.65166143  0.03646749     0.05300
H1586       H  0.39875187  0.64906036  0.05761551     0.08500
H1587       H  0.41360307  0.69347869  0.03469166     0.08500
H1588       H  0.34318704  0.57342652  0.90192943     0.08500
H1589       H  0.36983820  0.61325477  0.88131287     0.08500
H1590       H  0.31923845  0.62013598  0.89586742     0.05200
C1591       C  0.57083379  0.62147574  0.98091419    -0.20600
C1592       C  0.58849202  0.60302509  0.95204418    -0.07100
C1593       C  0.62801664  0.61280154  0.94273642     0.13700
C1594       C  0.64994683  0.63836510  0.96435947    -0.20600
C1595       C  0.63320923  0.65446181  0.99497161    -0.07100
C1596       C  0.59246465  0.64699125  0.00247636     0.13700
C1597       C  0.57125820  0.66534914  0.03315898    -0.24000
H1598       H  0.54024680  0.61430333  0.98761752     0.15000
H1599       H  0.68077960  0.64469110  0.95793054     0.15000
C1600       C  0.64696714  0.59638896  0.91015192    -0.23900
H1601       H  0.53868470  0.65921810  0.03266145     0.05300
H1602       H  0.57518905  0.69770266  0.03270888     0.08500
H1603       H  0.58309988  0.65304847  0.05788827     0.08500
H1604       H  0.62891657  0.60488902  0.88701002     0.08500
H1605       H  0.64869267  0.56394109  0.91152495     0.08500
H1606       H  0.67775092  0.60774299  0.90644190     0.05200
C1607       C  0.33568302  0.36188907  0.96244292    -0.20600
C1608       C  0.35097510  0.34706565  0.99409776    -0.07100
C1609       C  0.39069315  0.35665961  0.00377664     0.13700
C1610       C  0.41245754  0.38292361  0.98328212    -0.20600
C1611       C  0.39670783  0.39905961  0.95258364    -0.07100
C1612       C  0.35821768  0.38749084  0.94138675     0.13700
C1613       C  0.34019058  0.40161901  0.90760845    -0.24000
H1614       H  0.30567078  0.35412665  0.95437006     0.15000
H1615       H  0.44193313  0.39182521  0.99178488     0.15000
C1616       C  0.41110674  0.33898538  0.03521513    -0.23900
H1617       H  0.31243336  0.41833202  0.91314513     0.05300
H1618       H  0.33273204  0.37597542  0.89088894     0.08500
H1619       H  0.36070596  0.42076496  0.89263212     0.08500
H1620       H  0.40886805  0.30649182  0.03415662     0.08500
H1621       H  0.39746252  0.35034367  0.05958557     0.08500
H1622       H  0.44333785  0.34660299  0.03620439     0.05200
C1623       C  0.62530687  0.61849720  0.76881435    -0.20600
C1624       C  0.59170605  0.60134299  0.75323739    -0.07100
C1625       C  0.58152848  0.61123631  0.71854956     0.13700
C1626       C  0.60551235  0.63750968  0.70001745    -0.20600
C1627       C  0.64037046  0.65366774  0.71468581    -0.07100
C1628       C  0.64988846  0.64458749  0.75003976     0.13700
C1629       C  0.68641320  0.66083459  0.76795192    -0.24000
H1630       H  0.63294574  0.61042004  0.79538427     0.15000
H1631       H  0.59739944  0.64456603  0.67332617     0.15000
C1632       C  0.54618410  0.59276336  0.70040870    -0.23900
H1633       H  0.68962506  0.64942485  0.79499148     0.05300
H1634       H  0.68417825  0.69327794  0.76972049     0.08500
H1635       H  0.71366523  0.65240838  0.75323771     0.08500
H1636       H  0.51833984  0.60056807  0.71438834     0.08500
H1637       H  0.54961567  0.56034398  0.69995459     0.08500
H1638       H  0.54312208  0.60298808  0.67298748     0.05200
C1639       C  0.61787102  0.37028067  0.69098462    -0.20600
C1640       C  0.64829339  0.34875615  0.70780814    -0.07100
C1641       C  0.65243024  0.35281730  0.74471489     0.13700
C1642       C  0.62637805  0.37801524  0.76311548    -0.20600
C1643       C  0.59658460  0.39935767  0.74577970    -0.07100
C1644       C  0.59242424  0.39551206  0.70922709     0.13700
C1645       C  0.56206966  0.41835383  0.68824354    -0.24000
H1646       H  0.61380944  0.36796954  0.66295226     0.15000
H1647       H  0.62960771  0.38165100  0.79112105     0.15000
C1648       C  0.68432624  0.33160173  0.76511521    -0.23900
H1649       H  0.57776621  0.43703911  0.66888995     0.05300
H1650       H  0.54292009  0.43777416  0.70430336     0.08500
H1651       H  0.54231292  0.39761146  0.67402342     0.08500
H1652       H  0.71428967  0.33998033  0.75525386     0.08500
H1653       H  0.68005264  0.29939641  0.76280057     0.08500
H1654       H  0.68332540  0.33907430  0.79336689     0.05200
C1655       C  0.38580167  0.36426691  0.69248887    -0.20600
C1656       C  0.35204827  0.34736298  0.70835692    -0.07100
C1657       C  0.34521377  0.35474333  0.74448218     0.13700
C1658       C  0.37125614  0.37979621  0.76292814    -0.20600
C1659       C  0.40396854  0.39728045  0.74637397    -0.07100
C1660       C  0.41152535  0.38913115  0.71085286     0.13700
C1661       C  0.44621821  0.40758299  0.69189686    -0.24000
H1662       H  0.39204030  0.35848623  0.66517954     0.15000
H1663       H  0.36569123  0.38650333  0.79019197     0.15000
C1664       C  0.31015570  0.33763723  0.76369308    -0.23900
H1665       H  0.44711295  0.39891967  0.66391423     0.05300
H1666       H  0.47465472  0.39807100  0.70408488     0.08500
H1667       H  0.44390851  0.44006396  0.69319270     0.08500
H1668       H  0.31245429  0.30514956  0.76414717     0.08500
H1669       H  0.28216367  0.34669067  0.75058299     0.08500
H1670       H  0.30876004  0.34793217  0.79122583     0.05200
C1671       C  0.41731515  0.61686582  0.72630000    -0.20600
C1672       C  0.40234606  0.60066101  0.75721787    -0.07100
C1673       C  0.36377914  0.61149026  0.76865810     0.13700
C1674       C  0.34004354  0.63579528  0.74731898    -0.20600
C1675       C  0.35412131  0.64983951  0.71496794    -0.07100
C1676       C  0.39410284  0.64138141  0.70517463     0.13700
C1677       C  0.41304038  0.65777475  0.67255377    -0.24000
H1678       H  0.44700438  0.60870636  0.71774772     0.15000
H1679       H  0.30992507  0.64279742  0.75559577     0.15000
C1680       C  0.34673393  0.59723471  0.80273696    -0.23900
H1681       H  0.44556068  0.65145587  0.67144412     0.05300
H1682       H  0.40930531  0.69015626  0.67185614     0.08500
H1683       H  0.39942438  0.64413980  0.64907270     0.08500
H1684       H  0.33820444  0.62283245  0.81909812     0.08500
H1685       H  0.36831200  0.57930306  0.81787146     0.08500
H1686       H  0.31976395  0.57920072  0.79761012     0.05200
loop_ 
_geom_bond_atom_site_label_1 
_geom_bond_atom_site_label_2 
_geom_bond_distance 
_geom_bond_site_symmetry_2 
_ccdc_geom_bond_type 
N1            C6   1.352       .  A
N1            C5   1.351       .  A
N1           H33   1.035       .  S
N2            C9   1.354       .  A
N2           C10   1.355       .  A
N3            C8   1.350       .  A
N3            C7   1.351       .  A
N3           H34   1.036       .  S
N4           C11   1.353       .  A
N4           C12   1.353       .  A
C5           C13   1.387       .  A
C5           C21   1.413       .  A
C6           C22   1.413       .  A
C6           C14   1.386       .  A
C7           C15   1.387       .  A
C7           C24   1.414       .  A
C8           C23   1.410       .  A
C8           C16   1.386       .  A
C9           C21   1.416       .  A
C9           C17   1.386       .  A
C10          C24   1.417       .  A
C10          C18   1.387       .  A
C11          C19   1.386       .  A
C11          C22   1.415       .  A
C12          C20   1.386       .  A
C12          C23   1.414       .  A
C13          C14   1.377       .  A
C13          H25   1.082       .  S
C14          H26   1.082       .  S
C15          C16   1.378       .  A
C15          H27   1.082       .  S
C16          H28   1.082       .  S
C17          C18   1.369       .  A
C17          H29   1.082       .  S
C18          H30   1.081       .  S
C19          C20   1.370       .  A
C19          H31   1.082       .  S
C20          H32   1.082       .  S
C21        C1659   1.488       .  S
C22        C1643   1.488       .  S
C23        C1624   1.488       .  S
C24        C1672   1.493       .  S
N35          C40   1.350       .  A
N35          C39   1.351       .  A
N35          H67   1.038       .  S
N36          C43   1.353       .  A
N36          C44   1.353       .  A
N37          C42   1.351       .  A
N37          C41   1.352       .  A
N37          H68   1.038       .  S
N38          C45   1.353       .  A
N38          C46   1.353       .  A
C39          C47   1.387       .  A
C39          C55   1.412       .  A
C40          C56   1.410       .  A
C40          C48   1.386       .  A
C41          C49   1.386       .  A
C41          C58   1.413       .  A
C42          C57   1.415       .  A
C42          C50   1.387       .  A
C43          C55   1.415       .  A
C43          C51   1.387       .  A
C44          C58   1.414       .  A
C44          C52   1.386       .  A
C45          C53   1.386       .  A
C45          C56   1.415       .  A
C46          C54   1.387       .  A
C46          C57   1.416       .  A
C47          C48   1.379       .  A
C47          H59   1.082       .  S
C48          H60   1.082       .  S
C49          C50   1.379       .  A
C49          H61   1.082       .  S
C50          H62   1.083       .  S
C51          C52   1.372       .  A
C51          H63   1.082       .  S
C52          H64   1.082       .  S
C53          C54   1.373       .  A
C53          H65   1.082       .  S
C54          H66   1.082       .  S
C55        C1592   1.492       .  S
C56        C1576   1.489       .  S
C57        C1611   1.493       .  S
C58        C1560   1.493       .  S
N69          C74   1.352       .  A
N69          C73   1.355       .  A
N69         H101   1.040       .  S
N70          C77   1.350       .  A
N70          C78   1.349       .  A
N71          C76   1.354       .  A
N71          C75   1.352       .  A
N71         H102   1.040       .  S
N72          C79   1.349       .  A
N72          C80   1.350       .  A
C73          C81   1.387       .  A
C73          C89   1.414       .  A
C74          C90   1.414       .  A
C74          C82   1.388       .  A
C75          C83   1.388       .  A
C75          C92   1.414       .  A
C76          C91   1.414       .  A
C76          C84   1.387       .  A
C77          C89   1.410       .  A
C77          C85   1.385       .  A
C78          C92   1.410       .  A
C78          C86   1.387       .  A
C79          C87   1.387       .  A
C79          C90   1.410       .  A
C80          C88   1.385       .  A
C80          C91   1.410       .  A
C81          C82   1.374       .  A
C81          H93   1.082       .  S
C82          H94   1.082       .  S
C83          C84   1.374       .  A
C83          H95   1.082       .  S
C84          H96   1.082       .  S
C85          C86   1.374       .  A
C85          H97   1.082       .  S
C86          H98   1.082       .  S
C87          C88   1.374       .  A
C87          H99   1.082       .  S
C88         H100   1.082       .  S
C89        C1528   1.489       .  S
C90        C1499   1.482       .  S
C91        C1544   1.490       .  S
C92        C1515   1.483       .  S
N103        C108   1.353       .  A
N103        C107   1.354       .  A
N103        H135   1.039       .  S
N104        C111   1.353       .  A
N104        C112   1.352       .  A
N105        C110   1.355       .  A
N105        C109   1.354       .  A
N105        H136   1.039       .  S
N106        C113   1.350       .  A
N106        C114   1.351       .  A
C107        C115   1.388       .  A
C107        C123   1.415       .  A
C108        C124   1.413       .  A
C108        C116   1.387       .  A
C109        C117   1.387       .  A
C109        C126   1.415       .  A
C110        C125   1.417       .  A
C110        C118   1.387       .  A
C111        C123   1.416       .  A
C111        C119   1.386       .  A
C112        C126   1.414       .  A
C112        C120   1.386       .  A
C113        C121   1.386       .  A
C113        C124   1.410       .  A
C114        C122   1.386       .  A
C114        C125   1.412       .  A
C115        C116   1.370       .  A
C115        H127   1.082       .  S
C116        H128   1.082       .  S
C117        C118   1.371       .  A
C117        H129   1.082       .  S
C118        H130   1.082       .  S
C119        C120   1.374       .  A
C119        H131   1.082       .  S
C120        H132   1.082       .  S
C121        C122   1.372       .  A
C121        H133   1.083       .  S
C122        H134   1.082       .  S
C123       C1480   1.494       .  S
C124       C1448   1.483       .  S
C125       C1467   1.491       .  S
C126       C1435   1.488       .  S
N137        C142   1.354       .  A
N137        C141   1.353       .  A
N137        H169   1.040       .  S
N138        C145   1.350       .  A
N138        C146   1.351       .  A
N139        C144   1.353       .  A
N139        C143   1.355       .  A
N139        H170   1.040       .  S
N140        C147   1.352       .  A
N140        C148   1.350       .  A
C141        C149   1.388       .  A
C141        C157   1.416       .  A
C142        C158   1.414       .  A
C142        C150   1.386       .  A
C143        C151   1.387       .  A
C143        C160   1.415       .  A
C144        C159   1.414       .  A
C144        C152   1.387       .  A
C145        C157   1.412       .  A
C145        C153   1.386       .  A
C146        C160   1.411       .  A
C146        C154   1.386       .  A
C147        C155   1.385       .  A
C147        C158   1.412       .  A
C148        C156   1.387       .  A
C148        C159   1.413       .  A
C149        C150   1.373       .  A
C149        H161   1.082       .  S
C150        H162   1.082       .  S
C151        C152   1.372       .  A
C151        H163   1.082       .  S
C152        H164   1.082       .  S
C153        C154   1.374       .  A
C153        H165   1.082       .  S
C154        H166   1.083       .  S
C155        C156   1.375       .  A
C155        H167   1.082       .  S
C156        H168   1.082       .  S
C157       C1384   1.487       .  S
C158       C1416   1.490       .  S
C159       C1368   1.486       .  S
C160       C1403   1.488       .  S
N171        C176   1.355       .  A
N171        C175   1.355       .  A
N171        H203   1.040       .  S
N172        C179   1.352       .  A
N172        C180   1.353       .  A
N173        C178   1.354       .  A
N173        C177   1.357       .  A
N173        H204   1.040       .  S
N174        C181   1.354       .  A
N174        C182   1.352       .  A
C175        C183   1.387       .  A
C175        C191   1.416       .  A
C176        C192   1.417       .  A
C176        C184   1.388       .  A
C177        C185   1.387       .  A
C177        C194   1.419       .  A
C178        C193   1.418       .  A
C178        C186   1.388       .  A
C179        C191   1.413       .  A
C179        C187   1.386       .  A
C180        C194   1.416       .  A
C180        C188   1.386       .  A
C181        C189   1.386       .  A
C181        C192   1.417       .  A
C182        C190   1.387       .  A
C182        C193   1.417       .  A
C183        C184   1.372       .  A
C183        H195   1.082       .  S
C184        H196   1.082       .  S
C185        C186   1.373       .  A
C185        H197   1.082       .  S
C186        H198   1.082       .  S
C187        C188   1.374       .  A
C187        H199   1.083       .  S
C188        H200   1.082       .  S
C189        C190   1.376       .  A
C189        H201   1.082       .  S
C190        H202   1.082       .  S
C191       C1304   1.489       .  S
C192       C1336   1.498       .  S
C193       C1320   1.491       .  S
C194       C1352   1.499       .  S
Zr205       O206   2.437       .  S
Zr205       O207   2.431       .  S
Zr205       O208   2.462       .  S
Zr205       O211   2.426       .  S
Zr205       O213   2.374       .  S
Zr205       O214   2.384       .  S
Zr205       O215   2.404       .  S
Zr205       O216   2.399       .  S
O206        H262   0.990       .  S
O206        H270   0.990       .  S
O207        C227   1.284       .  A
O208        C229   1.288       .  A
O209       Zr219   2.426       .  S
O209        C228   1.283       .  A
O210       Zr218   2.440       .  S
O210        C229   1.286       .  A
O211        C228   1.284       .  A
O212       Zr220   2.397       .  S
O212        C227   1.276       .  A
O213       Zr218   2.391       .  S
O213       Zr220   2.388       .  S
O214       Zr219   2.391       .  S
O214       Zr220   2.377       .  S
O214        H249   0.965       .  S
O215       Zr218   2.396       .  S
O215       Zr235   2.391       .  S
O215        H252   0.964       .  S
O216       Zr219   2.390       .  S
O216       Zr235   2.387       .  S
Zr217       O242   2.443   1_554  S
Zr217       O236   2.446       .  S
Zr217       O244   2.436   1_554  S
Zr217       O232   2.428   1_554  S
Zr217       O223   2.398       .  S
Zr217       O224   2.411       .  S
Zr217       O225   2.385       .  S
Zr217       O226   2.379       .  S
Zr218       O237   2.436       .  S
Zr218       O230   2.433       .  S
Zr218       O231   2.422       .  S
Zr218       O224   2.406       .  S
Zr218       O225   2.401       .  S
Zr219       O221   2.435       .  S
Zr219       O243   2.437       .  S
Zr219       O245   2.425       .  S
Zr219       O223   2.387       .  S
Zr219       O226   2.395       .  S
Zr220       O246   2.434       .  S
Zr220       O247   2.436       .  S
Zr220       O222   2.437       .  S
Zr220       O223   2.384       .  S
Zr220       O224   2.381       .  S
O221        H258   0.990       .  S
O222        H253   0.990       .  S
O222        H267   0.990       .  S
O224        H250   0.966       .  S
O225       Zr235   2.379       .  S
O226       Zr235   2.379       .  S
O226        H251   0.966       .  S
C227       C1288   1.472       .  S
C228       C1512   1.482       .  S
C229       C1355   1.501       .  S
O230        H266   0.989       .  S
O231        C233   1.282       .  A
O232        C233   1.282   1_556  A
C233       C1256   1.471   1_554  S
O234       Zr235   2.441       .  S
O234        H263   0.990       .  S
Zr235       O238   2.437       .  S
Zr235       O239   2.442       .  S
Zr235       O240   2.409       .  S
O236        C241   1.285       .  A
O237        H254   0.990       .  S
O237        H269   0.990       .  S
O238        H255   0.990       .  S
O239        H259   0.989       .  S
O239        H268   0.989       .  S
O240        C241   1.279       .  A
C241       C1608   1.488   1_554  S
O242        H261   0.990       .  S
O242        H265   0.990       .  S
O243        H257   0.990       .  S
O243        H264   0.990       .  S
O244        C248   1.284       .  A
O245        C248   1.284   1_554  A
O246        H256   0.990       .  S
O247        H260   0.990       .  S
C248       C1275   1.480       .  S
Zr271       O272   2.441   1_554  S
Zr271       O273   2.437   1_554  S
Zr271       O274   2.448   1_554  S
Zr271       O277   2.438   1_554  S
Zr271       O279   2.386       .  S
Zr271       O280   2.388       .  S
Zr271       O281   2.407       .  S
Zr271       O282   2.401       .  S
O272        H328   0.990       .  S
O272        H336   0.990       .  S
O273        C293   1.283   1_556  A
O274        C295   1.287   1_556  A
O275       Zr285   2.409       .  S
O275        C294   1.282   1_554  A
O276       Zr284   2.428       .  S
O276        C295   1.284       .  A
O277        C294   1.285       .  A
O278       Zr286   2.420       .  S
O278        C293   1.281       .  A
O279       Zr284   2.405       .  S
O279       Zr286   2.379       .  S
O280       Zr285   2.397       .  S
O280       Zr286   2.372       .  S
O280        H315   0.966       .  S
O281       Zr284   2.410       .  S
O281       Zr301   2.371       .  S
O281        H318   0.964       .  S
O282       Zr285   2.395       .  S
O282       Zr301   2.381       .  S
Zr283       O308   2.443       .  S
Zr283       O302   2.432       .  S
Zr283       O310   2.430       .  S
Zr283       O298   2.437       .  S
Zr283       O289   2.402       .  S
Zr283       O290   2.411       .  S
Zr283       O291   2.375       .  S
Zr283       O292   2.382       .  S
Zr284       O303   2.433       .  S
Zr284       O296   2.436       .  S
Zr284       O297   2.449       .  S
Zr284       O290   2.392       .  S
Zr284       O291   2.390       .  S
Zr285       O287   2.435       .  S
Zr285       O309   2.436       .  S
Zr285       O311   2.448       .  S
Zr285       O289   2.382       .  S
Zr285       O292   2.385       .  S
Zr286       O312   2.437       .  S
Zr286       O313   2.436       .  S
Zr286       O288   2.436       .  S
Zr286       O289   2.395       .  S
Zr286       O290   2.385       .  S
O287        H324   0.990       .  S
O288        H319   0.990       .  S
O288        H333   0.990       .  S
O290        H316   0.965       .  S
O291       Zr301   2.388       .  S
O292       Zr301   2.387       .  S
O292        H317   0.965       .  S
C293       C1579   1.488   1_554  S
C294       C1208   1.473       .  S
C295       C1227   1.482   1_554  S
O296        H332   0.990       .  S
O297        C299   1.287       .  A
O298        C299   1.284       .  A
C299       C1419   1.485       .  S
O300       Zr301   2.439       .  S
O300        H329   0.990       .  S
Zr301       O304   2.438       .  S
Zr301       O305   2.439       .  S
Zr301       O306   2.384       .  S
O302        C307   1.282       .  A
O303        H320   0.990       .  S
O303        H335   0.989       .  S
O304        H321   0.990       .  S
O305        H325   0.990       .  S
O305        H334   0.990       .  S
O306        C307   1.273       .  A
C307       C1243   1.462       .  S
O308        H327   0.990       .  S
O308        H331   0.988       .  S
O309        H323   0.990       .  S
O309        H330   0.990       .  S
O310        C314   1.282       .  A
O311        C314   1.286       .  A
O312        H322   0.990       .  S
O313        H326   0.990       .  S
C314       C1323   1.488       .  S
Zr337       O338   2.444       .  S
Zr337       O339   2.432       .  S
Zr337       O340   2.436       .  S
Zr337       O343   2.431       .  S
Zr337       O345   2.374       .  S
Zr337       O346   2.381       .  S
Zr337       O347   2.409       .  S
Zr337       O348   2.397       .  S
O338        H394   0.991       .  S
O338        H402   0.991       .  S
O339        C359   1.284       .  A
O340        C361   1.283       .  A
O341       Zr351   2.427       .  S
O341        C360   1.283       .  A
O342       Zr350   2.448       .  S
O342        C361   1.286       .  A
O343        C360   1.285       .  A
O344       Zr352   2.393       .  S
O344        C359   1.275       .  A
O345       Zr350   2.393       .  S
O345       Zr352   2.387       .  S
O346       Zr351   2.390       .  S
O346       Zr352   2.375       .  S
O346        H381   0.965       .  S
O347       Zr350   2.396       .  S
O347       Zr367   2.397       .  S
O347        H384   0.965       .  S
O348       Zr351   2.391       .  S
O348       Zr367   2.388       .  S
Zr349       O374   2.442       .  S
Zr349       O368   2.443       .  S
Zr349       O376   2.434       .  S
Zr349       O364   2.432       .  S
Zr349       O355   2.402       .  S
Zr349       O356   2.407       .  S
Zr349       O357   2.385       .  S
Zr349       O358   2.383       .  S
Zr350       O369   2.435       .  S
Zr350       O362   2.433       .  S
Zr350       O363   2.427       .  S
Zr350       O356   2.405       .  S
Zr350       O357   2.396       .  S
Zr351       O353   2.436       .  S
Zr351       O375   2.440       .  S
Zr351       O377   2.414       .  S
Zr351       O355   2.394       .  S
Zr351       O358   2.399       .  S
Zr352       O378   2.436       .  S
Zr352       O379   2.436       .  S
Zr352       O354   2.438       .  S
Zr352       O355   2.385       .  S
Zr352       O356   2.376       .  S
O353        H390   0.990       .  S
O354        H385   0.990       .  S
O354        H399   0.990       .  S
O356        H382   0.963       .  S
O357       Zr367   2.380       .  S
O358       Zr367   2.377       .  S
O358        H383   0.966       .  S
C359       C1179   1.473       .  S
C360       C1371   1.482       .  S
C361       C1339   1.493       .  S
O362        H398   0.990       .  S
O363        C365   1.284       .  A
O364        C365   1.285       .  A
C365       C1160   1.477       .  S
O366       Zr367   2.441       .  S
O366        H395   0.990       .  S
Zr367       O370   2.437       .  S
Zr367       O371   2.440       .  S
Zr367       O372   2.416       .  S
O368        C373   1.285       .  A
O369        H386   0.990       .  S
O369        H401   0.990       .  S
O370        H387   0.990       .  S
O371        H391   0.989       .  S
O371        H400   0.989       .  S
O372        C373   1.280       .  A
C373       C1675   1.491       .  S
O374        H393   0.990       .  S
O374        H397   0.991       .  S
O375        H389   0.990       .  S
O375        H396   0.990       .  S
O376        C380   1.282       .  A
O377        C380   1.281       .  A
O378        H388   0.990       .  S
O379        H392   0.990       .  S
C380       C1192   1.465       .  S
Zr403       O404   2.438       .  S
Zr403       O405   2.441       .  S
Zr403       O406   2.463       .  S
Zr403       O409   2.443       .  S
Zr403       O411   2.385       .  S
Zr403       O412   2.392       .  S
Zr403       O413   2.410       .  S
Zr403       O414   2.401       .  S
O404        H460   0.990       .  S
O404        H468   0.990       .  S
O405        C425   1.283       .  A
O406        C427   1.288       .  A
O407       Zr417   2.413       .  S
O407        C426   1.282       .  A
O408       Zr416   2.403       .  S
O408        C427   1.281       .  A
O409        C426   1.286       .  A
O410       Zr418   2.413       .  S
O410        C425   1.282       .  A
O411       Zr416   2.397       .  S
O411       Zr418   2.375       .  S
O412       Zr417   2.398       .  S
O412       Zr418   2.377       .  S
O412        H447   0.966       .  S
O413       Zr416   2.404       .  S
O413       Zr433   2.382       .  S
O413        H450   0.965       .  S
O414       Zr417   2.393       .  S
O414       Zr433   2.379       .  S
Zr415       O440   2.441       .  S
Zr415       O434   2.440       .  S
Zr415       O442   2.436       .  S
Zr415       O430   2.439       .  S
Zr415       O421   2.403       .  S
Zr415       O422   2.411       .  S
Zr415       O423   2.377       .  S
Zr415       O424   2.379       .  S
Zr416       O435   2.435       .  S
Zr416       O428   2.435       .  S
Zr416       O429   2.435       .  S
Zr416       O422   2.395       .  S
Zr416       O423   2.388       .  S
Zr417       O419   2.436       .  S
Zr417       O441   2.436       .  S
Zr417       O443   2.437       .  S
Zr417       O421   2.383       .  S
Zr417       O424   2.388       .  S
Zr418       O444   2.436       .  S
Zr418       O445   2.436       .  S
Zr418       O420   2.438       .  S
Zr418       O421   2.394       .  S
Zr418       O422   2.389       .  S
O419        H456   0.990       .  S
O420        H451   0.990       .  S
O420        H465   0.990       .  S
O422        H448   0.965       .  S
O423       Zr433   2.386       .  S
O424       Zr433   2.384       .  S
O424        H449   0.966       .  S
C425       C1656   1.496       .  S
C426       C1147   1.478       .  S
C427       C1128   1.493       .  S
O428        H464   0.990       .  S
O429        C431   1.284       .  A
O430        C431   1.284       .  A
C431       C1531   1.486       .  S
O432       Zr433   2.438       .  S
O432        H461   0.990       .  S
Zr433       O436   2.436       .  S
Zr433       O437   2.440       .  S
Zr433       O438   2.389       .  S
O434        C439   1.284       .  A
O435        H452   0.990       .  S
O435        H467   0.990       .  S
O436        H453   0.990       .  S
O437        H457   0.990       .  S
O437        H466   0.990       .  S
O438        C439   1.275       .  A
C439       C1115   1.471       .  S
O440        H459   0.990       .  S
O440        H463   0.990       .  S
O441        H455   0.990       .  S
O441        H462   0.990       .  S
O442        C446   1.284       .  A
O443        C446   1.285       .  A
O444        H454   0.990       .  S
O445        H458   0.990       .  S
C446       C1307   1.485       .  S
Zr469       O470   2.437       .  S
Zr469       O471   2.429       .  S
Zr469       O472   2.442       .  S
Zr469       O475   2.421       .  S
Zr469       O477   2.375       .  S
Zr469       O478   2.383       .  S
Zr469       O479   2.407       .  S
Zr469       O480   2.398       .  S
O470        H526   0.990       .  S
O470        H534   0.990       .  S
O471        C491   1.282       .  A
O472        C493   1.284       .  A
O473       Zr483   2.440       .  S
O473        C492   1.285       .  A
O474       Zr482   2.454       .  S
O474        C493   1.289       .  A
O475        C492   1.282       .  A
O476       Zr484   2.388       .  S
O476        C491   1.276       .  A
O477       Zr482   2.395       .  S
O477       Zr484   2.387       .  S
O478       Zr483   2.393       .  S
O478       Zr484   2.380       .  S
O478        H513   0.966       .  S
O479       Zr482   2.396       .  S
O479       Zr499   2.398       .  S
O479        H516   0.965       .  S
O480       Zr483   2.386       .  S
O480       Zr499   2.389       .  S
Zr481       O506   2.441   1_554  S
Zr481       O500   2.432       .  S
Zr481       O508   2.441   1_554  S
Zr481       O496   2.449   1_554  S
Zr481       O487   2.399       .  S
Zr481       O488   2.405       .  S
Zr481       O489   2.387       .  S
Zr481       O490   2.384       .  S
Zr482       O501   2.435       .  S
Zr482       O494   2.435       .  S
Zr482       O495   2.428       .  S
Zr482       O488   2.411       .  S
Zr482       O489   2.402       .  S
Zr483       O485   2.436       .  S
Zr483       O507   2.438       .  S
Zr483       O509   2.424       .  S
Zr483       O487   2.392       .  S
Zr483       O490   2.397       .  S
Zr484       O510   2.434       .  S
Zr484       O511   2.436       .  S
Zr484       O486   2.437       .  S
Zr484       O487   2.383       .  S
Zr484       O488   2.368       .  S
O485        H522   0.990       .  S
O486        H517   0.990       .  S
O486        H531   0.990       .  S
O488        H514   0.963       .  S
O489       Zr499   2.381       .  S
O490       Zr499   2.378       .  S
O490        H515   0.966       .  S
C491       C1096   1.467       .  S
C492       C1387   1.487       .  S
C493       C1483   1.497       .  S
O494        H530   0.990       .  S
O495        C497   1.284       .  A
O496        C497   1.286   1_556  A
C497       C1064   1.472   1_554  S
O498       Zr499   2.440       .  S
O498        H527   0.990       .  S
Zr499       O502   2.437       .  S
Zr499       O503   2.440       .  S
Zr499       O504   2.423       .  S
O500        C505   1.283       .  A
O501        H518   0.990       .  S
O501        H533   0.990       .  S
O502        H519   0.990       .  S
O503        H523   0.989       .  S
O503        H532   0.989       .  S
O504        C505   1.282       .  A
C505       C1595   1.488   1_554  S
O506        H525   0.990       .  S
O506        H529   0.990       .  S
O507        H521   0.990       .  S
O507        H528   0.990       .  S
O508        C512   1.286   1_556  A
O509        C512   1.284       .  A
O510        H520   0.990       .  S
O511        H524   0.990       .  S
C512       C1080   1.480   1_554  S
Zr535       O536   2.442       .  S
Zr535       O537   2.440       .  S
Zr535       O538   2.436       .  S
Zr535       O541   2.431       .  S
Zr535       O543   2.380       .  S
Zr535       O544   2.384       .  S
Zr535       O545   2.408       .  S
Zr535       O546   2.399       .  S
O536        H592   0.990       .  S
O536        H600   0.990       .  S
O537        C557   1.282       .  A
O538        C559   1.284       .  A
O539       Zr549   2.414       .  S
O539        C558   1.282       .  A
O540       Zr548   2.430       .  S
O540        C559   1.284       .  A
O541        C558   1.284       .  A
O542       Zr550   2.416       .  S
O542        C557   1.282       .  A
O543       Zr548   2.401       .  S
O543       Zr550   2.376       .  S
O544       Zr549   2.399       .  S
O544       Zr550   2.375       .  S
O544        H579   0.966       .  S
O545       Zr548   2.407       .  S
O545       Zr565   2.381       .  S
O545        H582   0.965       .  S
O546       Zr549   2.390       .  S
O546       Zr565   2.384       .  S
Zr547       O572   2.438       .  S
Zr547       O566   2.431       .  S
Zr547       O574   2.438       .  S
Zr547       O562   2.446       .  S
Zr547       O553   2.397       .  S
Zr547       O554   2.409       .  S
Zr547       O555   2.371       .  S
Zr547       O556   2.378       .  S
Zr548       O567   2.433       .  S
Zr548       O560   2.434       .  S
Zr548       O561   2.440       .  S
Zr548       O554   2.401       .  S
Zr548       O555   2.390       .  S
Zr549       O551   2.435       .  S
Zr549       O573   2.439       .  S
Zr549       O575   2.426       .  S
Zr549       O553   2.387       .  S
Zr549       O556   2.390       .  S
Zr550       O576   2.435       .  S
Zr550       O577   2.435       .  S
Zr550       O552   2.437       .  S
Zr550       O553   2.392       .  S
Zr550       O554   2.390       .  S
O551        H588   0.990       .  S
O552        H583   0.990       .  S
O552        H597   0.990       .  S
O554        H580   0.962       .  S
O555       Zr565   2.379       .  S
O556       Zr565   2.384       .  S
O556        H581   0.965       .  S
C557       C1627   1.495       .  S
C558       C1032   1.468       .  S
C559       C1016   1.478       .  S
O560        H596   0.990       .  S
O561        C563   1.286       .  A
O562        C563   1.286       .  A
C563       C1400   1.491       .  S
O564       Zr565   2.438       .  S
O564        H593   0.990       .  S
Zr565       O568   2.436       .  S
Zr565       O569   2.439       .  S
Zr565       O570   2.390       .  S
O566        C571   1.283       .  A
O567        H584   0.990       .  S
O567        H599   0.989       .  S
O568        H585   0.990       .  S
O569        H589   0.990       .  S
O569        H598   0.990       .  S
O570        C571   1.274       .  A
C571       C1048   1.470       .  S
O572        H591   0.988       .  S
O572        H595   0.990       .  S
O573        H587   0.990       .  S
O573        H594   0.990       .  S
O574        C578   1.284       .  A
O575        C578   1.283       .  A
O576        H586   0.990       .  S
O577        H590   0.990       .  S
C578       C1432   1.479       .  S
Zr601       O602   2.442       .  S
Zr601       O603   2.430       .  S
Zr601       O604   2.444       .  S
Zr601       O607   2.425       .  S
Zr601       O609   2.378       .  S
Zr601       O610   2.384       .  S
Zr601       O611   2.406       .  S
Zr601       O612   2.398       .  S
O602        H658   0.990       .  S
O602        H666   0.990       .  S
O603        C623   1.282       .  A
O604        C625   1.285       .  A
O605       Zr615   2.432       .  S
O605        C624   1.284       .  A
O606       Zr614   2.434       .  S
O606        C625   1.283       .  A
O607        C624   1.282       .  A
O608       Zr616   2.407       .  S
O608        C623   1.278       .  A
O609       Zr614   2.395       .  S
O609       Zr616   2.387       .  S
O610       Zr615   2.389       .  S
O610       Zr616   2.378       .  S
O610        H645   0.966       .  S
O611       Zr614   2.397       .  S
O611       Zr631   2.391       .  S
O611        H648   0.965       .  S
O612       Zr615   2.388       .  S
O612       Zr631   2.391       .  S
Zr613       O638   2.441   1_554  S
Zr613       O632   2.448       .  S
Zr613       O640   2.452   1_554  S
Zr613       O628   2.435   1_554  S
Zr613       O619   2.400       .  S
Zr613       O620   2.412       .  S
Zr613       O621   2.383       .  S
Zr613       O622   2.386       .  S
Zr614       O633   2.436       .  S
Zr614       O626   2.436       .  S
Zr614       O627   2.418       .  S
Zr614       O620   2.399       .  S
Zr614       O621   2.401       .  S
Zr615       O617   2.435       .  S
Zr615       O639   2.440       .  S
Zr615       O641   2.414       .  S
Zr615       O619   2.391       .  S
Zr615       O622   2.401       .  S
Zr616       O642   2.436       .  S
Zr616       O643   2.436       .  S
Zr616       O618   2.436       .  S
Zr616       O619   2.385       .  S
Zr616       O620   2.384       .  S
O617        H654   0.990       .  S
O618        H649   0.990       .  S
O618        H663   0.990       .  S
O620        H646   0.965       .  S
O621       Zr631   2.378       .  S
O622       Zr631   2.382       .  S
O622        H647   0.965       .  S
C623       C1003   1.475       .  S
C624       C1451   1.478       .  S
C625       C1547   1.489       .  S
O626        H662   0.990       .  S
O627        C629   1.282       .  A
O628        C629   1.285   1_556  A
C629        C968   1.480   1_554  S
O630       Zr631   2.440       .  S
O630        H659   0.990       .  S
Zr631       O634   2.438       .  S
Zr631       O635   2.439       .  S
Zr631       O636   2.419       .  S
O632        C637   1.285       .  A
O633        H650   0.990       .  S
O633        H665   0.990       .  S
O634        H651   0.990       .  S
O635        H655   0.990       .  S
O635        H664   0.990       .  S
O636        C637   1.282       .  A
C637       C1563   1.496   1_554  S
O638        H657   0.990       .  S
O638        H661   0.990       .  S
O639        H653   0.990       .  S
O639        H660   0.990       .  S
O640        C644   1.286   1_556  A
O641        C644   1.281       .  A
O642        H652   0.990       .  S
O643        H656   0.990       .  S
C644        C984   1.475   1_554  S
Zr667       O668   2.441       .  S
Zr667       O669   2.445       .  S
Zr667       O670   2.460       .  S
Zr667       O673   2.451       .  S
Zr667       O675   2.389       .  S
Zr667       O676   2.389       .  S
Zr667       O677   2.412       .  S
Zr667       O678   2.403       .  S
O668        H724   0.990       .  S
O668        H732   0.990       .  S
O669        C689   1.283       .  A
O670        C691   1.288       .  A
O671       Zr681   2.404       .  S
O671        C690   1.281       .  A
O672       Zr680   2.401       .  S
O672        C691   1.278       .  A
O673        C690   1.287       .  A
O674       Zr682   2.413       .  S
O674        C689   1.281       .  A
O675       Zr680   2.403       .  S
O675       Zr682   2.379       .  S
O676       Zr681   2.398       .  S
O676       Zr682   2.374       .  S
O676        H711   0.967       .  S
O677       Zr680   2.404       .  S
O677       Zr697   2.377       .  S
O677        H714   0.965       .  S
O678       Zr681   2.391       .  S
O678       Zr697   2.382       .  S
Zr679       O704   2.441       .  S
Zr679       O698   2.432       .  S
Zr679       O706   2.421       .  S
Zr679       O694   2.451       .  S
Zr679       O685   2.399       .  S
Zr679       O686   2.407       .  S
Zr679       O687   2.376       .  S
Zr679       O688   2.384       .  S
Zr680       O699   2.437       .  S
Zr680       O692   2.433       .  S
Zr680       O693   2.436       .  S
Zr680       O686   2.392       .  S
Zr680       O687   2.384       .  S
Zr681       O683   2.435       .  S
Zr681       O705   2.436       .  S
Zr681       O707   2.431       .  S
Zr681       O685   2.385       .  S
Zr681       O688   2.385       .  S
Zr682       O708   2.434       .  S
Zr682       O709   2.436       .  S
Zr682       O684   2.437       .  S
Zr682       O685   2.389       .  S
Zr682       O686   2.393       .  S
O683        H720   0.990       .  S
O684        H715   0.990       .  S
O684        H729   0.990       .  S
O686        H712   0.967       .  S
O687       Zr697   2.388       .  S
O688       Zr697   2.384       .  S
O688        H713   0.966       .  S
C689       C1640   1.502       .  S
C690        C920   1.479       .  S
C691        C952   1.489       .  S
O692        H728   0.990       .  S
O693        C695   1.285       .  A
O694        C695   1.286       .  A
C695       C1464   1.492       .  S
O696       Zr697   2.440       .  S
O696        H725   0.990       .  S
Zr697       O700   2.437       .  S
Zr697       O701   2.439       .  S
Zr697       O702   2.391       .  S
O698        C703   1.283       .  A
O699        H716   0.990       .  S
O699        H731   0.990       .  S
O700        H717   0.990       .  S
O701        H721   0.990       .  S
O701        H730   0.990       .  S
O702        C703   1.275       .  A
C703        C936   1.461       .  S
O704        H723   0.990       .  S
O704        H727   0.990       .  S
O705        H719   0.989       .  S
O705        H726   0.990       .  S
O706        C710   1.282       .  A
O707        C710   1.283       .  A
O708        H718   0.990       .  S
O709        H722   0.990       .  S
C710       C1496   1.478       .  S
O733       Zr745   2.420       .  S
O733        C735   1.284       .  A
O734       Zr771   2.422   1_545  S
O734        C735   1.287       .  A
C735       C1000   1.472       .  S
O736       Zr748   2.412       .  S
O736        C738   1.283       .  A
O737       Zr772   2.430   1_445  S
O737        C738   1.287       .  A
C738       C1112   1.470       .  S
O739       Zr748   2.418       .  S
O739        C741   1.283       .  A
O740       Zr771   2.422   1_445  S
O740        C741   1.286       .  A
C741       C1291   1.474       .  S
O742       Zr745   2.417       .  S
O742        C744   1.283       .  A
O743       Zr772   2.405   1_545  S
O743        C744   1.283       .  A
C744        C939   1.456       .  S
Zr745       O746   2.433       .  S
Zr745       O747   2.437       .  S
Zr745       O751   2.364       .  S
Zr745       O752   2.369       .  S
Zr745       O775   2.361   1_545  S
Zr745       O777   2.365   1_545  S
O746        H789   0.990       .  S
O747        H788   0.990       .  S
O747        H792   0.990       .  S
Zr748       O749   2.436       .  S
Zr748       O750   2.434       .  S
Zr748       O752   2.367   1_455  S
Zr748       O751   2.361   1_455  S
Zr748       O776   2.363   1_545  S
Zr748       O778   2.369   1_545  S
O749        H790   0.990       .  S
O749        H793   0.990       .  S
O750        H783   0.990       .  S
O751       Zr771   2.370   1_545  S
O752       Zr772   2.382   1_545  S
O752        H779   0.966       .  S
O753       Zr765   2.408       .  S
O753        C755   1.280       .  A
O754       Zr772   2.418       .  S
O754        C755   1.286       .  A
C755       C1051   1.467       .  S
O756       Zr768   2.422       .  S
O756        C758   1.284       .  A
O757       Zr771   2.405   1_455  S
O757        C758   1.283       .  A
C758       C1240   1.459       .  S
O759       Zr768   2.427       .  S
O759        C761   1.285       .  A
O760       Zr772   2.417   1_455  S
O760        C761   1.286       .  A
C761       C1176   1.475       .  S
O762       Zr765   2.405       .  S
O762        C764   1.282       .  A
O763       Zr771   2.427       .  S
O763        C764   1.287       .  A
C764       C1099   1.472       .  S
Zr765       O766   2.438       .  S
Zr765       O767   2.433       .  S
Zr765       O773   2.365       .  S
Zr765       O774   2.358       .  S
Zr765       O777   2.367       .  S
Zr765       O775   2.358       .  S
O766        H786   0.990       .  S
O766        H791   0.990       .  S
O767        H787   0.990       .  S
Zr768       O769   2.433       .  S
Zr768       O770   2.435       .  S
Zr768       O774   2.361   1_455  S
Zr768       O773   2.360   1_455  S
Zr768       O778   2.370       .  S
Zr768       O776   2.369       .  S
O769        H785   0.990       .  S
O770        H784   0.990       .  S
O770        H794   0.990       .  S
Zr771       O774   2.376       .  S
Zr771       O776   2.383   1_655  S
Zr771       O777   2.380       .  S
Zr772       O773   2.380       .  S
Zr772       O775   2.380       .  S
Zr772       O778   2.379   1_655  S
O773        H781   0.966       .  S
O776        H780   0.966       .  S
O777        H782   0.967       .  S
O795       Zr807   2.414       .  S
O795        C797   1.281       .  A
O796       Zr833   2.435   1_565  S
O796        C797   1.288       .  A
C797       C1224   1.461       .  S
O798       Zr810   2.416       .  S
O798        C800   1.283       .  A
O799       Zr834   2.423   1_545  S
O799        C800   1.286       .  A
C800        C971   1.458       .  S
O801       Zr810   2.427       .  S
O801        C803   1.285       .  A
O802       Zr833   2.446       .  S
O802        C803   1.290       .  A
C803       C1272   1.476       .  S
O804       Zr807   2.424       .  S
O804        C806   1.284       .  A
O805       Zr834   2.445       .  S
O805        C806   1.289       .  A
C806       C1083   1.480       .  S
Zr807       O808   2.435       .  S
Zr807       O809   2.438       .  S
Zr807       O813   2.373   1_565  S
Zr807       O814   2.359   1_565  S
Zr807       O837   2.362       .  S
Zr807       O839   2.363       .  S
O808        H851   0.990       .  S
O809        H850   0.990       .  S
O809        H854   0.990       .  S
Zr810       O811   2.434       .  S
Zr810       O812   2.434       .  S
Zr810       O814   2.373       .  S
Zr810       O813   2.368       .  S
Zr810       O838   2.361       .  S
Zr810       O840   2.364       .  S
O811        H852   0.990       .  S
O811        H855   0.990       .  S
O812        H845   0.990       .  S
O813       Zr833   2.389       .  S
O814       Zr834   2.387   1_545  S
O814        H841   0.967       .  S
O815       Zr827   2.419       .  S
O815        C817   1.283       .  A
O816       Zr834   2.427       .  S
O816        C817   1.286       .  A
C817       C1019   1.462       .  S
O818       Zr830   2.423       .  S
O818        C820   1.284       .  A
O819       Zr833   2.439       .  S
O819        C820   1.289       .  A
C820       C1131   1.467       .  S
O821       Zr830   2.428       .  S
O821        C823   1.284       .  A
O822       Zr834   2.428   1_545  S
O822        C823   1.286       .  A
C823        C923   1.467       .  S
O824       Zr827   2.419       .  S
O824        C826   1.285       .  A
O825       Zr833   2.440   1_565  S
O825        C826   1.289       .  A
C826       C1195   1.480       .  S
Zr827       O828   2.436       .  S
Zr827       O829   2.434       .  S
Zr827       O835   2.366       .  S
Zr827       O836   2.368       .  S
Zr827       O839   2.362       .  S
Zr827       O837   2.366       .  S
O828        H848   0.990       .  S
O828        H853   0.990       .  S
O829        H849   0.990       .  S
Zr830       O831   2.434       .  S
Zr830       O832   2.438       .  S
Zr830       O836   2.374   1_545  S
Zr830       O835   2.364   1_545  S
Zr830       O840   2.365       .  S
Zr830       O838   2.369       .  S
O831        H847   0.990       .  S
O832        H846   0.990       .  S
O832        H856   0.990       .  S
Zr833       O836   2.393   1_545  S
Zr833       O838   2.390       .  S
Zr833       O839   2.392   1_545  S
Zr834       O835   2.391       .  S
Zr834       O837   2.379       .  S
Zr834       O840   2.388   1_565  S
O835        H843   0.968       .  S
O838        H842   0.967       .  S
O839        H844   0.966       .  S
O857       Zr869   2.416       .  S
O857        C859   1.283       .  A
O858       Zr895   2.422   1_455  S
O858        C859   1.286       .  A
C859       C1259   1.457       .  S
O860       Zr872   2.414       .  S
O860        C862   1.282       .  A
O861       Zr896   2.439       .  S
O861        C862   1.289       .  A
C862       C1067   1.471       .  S
O863       Zr872   2.430       .  S
O863        C865   1.285       .  A
O864       Zr895   2.438       .  S
O864        C865   1.288       .  A
C865        C987   1.472       .  S
O866       Zr869   2.426       .  S
O866        C868   1.285       .  A
O867       Zr896   2.427   1_455  S
O867        C868   1.287       .  A
C868       C1211   1.470       .  S
Zr869       O870   2.434       .  S
Zr869       O871   2.437       .  S
Zr869       O875   2.378       .  S
Zr869       O876   2.371       .  S
Zr869       O899   2.355       .  S
Zr869       O901   2.366       .  S
O870        H913   0.990       .  S
O871        H912   0.990       .  S
O871        H916   0.990       .  S
Zr872       O873   2.433       .  S
Zr872       O874   2.433       .  S
Zr872       O876   2.366   1_655  S
Zr872       O875   2.359   1_655  S
Zr872       O900   2.372       .  S
Zr872       O902   2.371       .  S
O873        H914   0.990       .  S
O873        H917   0.990       .  S
O874        H907   0.990       .  S
O875       Zr895   2.390   1_455  S
O876       Zr896   2.390   1_455  S
O876        H903   0.967       .  S
O877       Zr889   2.415       .  S
O877        C879   1.283       .  A
O878       Zr896   2.427   1_455  S
O878        C879   1.286       .  A
C879       C1163   1.459       .  S
O880       Zr892   2.407       .  S
O880        C882   1.283       .  A
O881       Zr895   2.435       .  S
O881        C882   1.287       .  A
C882        C955   1.472       .  S
O883       Zr892   2.417       .  S
O883        C885   1.283       .  A
O884       Zr896   2.428       .  S
O884        C885   1.286       .  A
C885       C1035   1.464       .  S
O886       Zr889   2.425       .  S
O886        C888   1.284       .  A
O887       Zr895   2.421   1_455  S
O887        C888   1.285       .  A
C888       C1144   1.460       .  S
Zr889       O890   2.435       .  S
Zr889       O891   2.436       .  S
Zr889       O897   2.365   1_455  S
Zr889       O898   2.359   1_455  S
Zr889       O901   2.366       .  S
Zr889       O899   2.364       .  S
O890        H910   0.990       .  S
O890        H915   0.990       .  S
O891        H911   0.990       .  S
Zr892       O893   2.436       .  S
Zr892       O894   2.433       .  S
Zr892       O898   2.365       .  S
Zr892       O897   2.365       .  S
Zr892       O902   2.359       .  S
Zr892       O900   2.358       .  S
O893        H909   0.990       .  S
O894        H908   0.990       .  S
O894        H918   0.990       .  S
Zr895       O898   2.386       .  S
Zr895       O900   2.388       .  S
Zr895       O901   2.397   1_655  S
Zr896       O897   2.390       .  S
Zr896       O899   2.383   1_655  S
Zr896       O902   2.382       .  S
O897        H905   0.967       .  S
O900        H904   0.965       .  S
O901        H906   0.966       .  S
C919        C920   1.407       .  A
C919        C924   1.400       .  A
C919        H926   1.085       .  S
C920        C921   1.415       .  A
C921        C922   1.405       .  A
C921        C928   1.507       .  S
C922        C923   1.402       .  A
C922        H927   1.084       .  S
C923        C924   1.408       .  A
C924        C925   1.506       .  S
C925        H929   1.111       .  S
C925        H930   1.111       .  S
C925        H931   1.109       .  S
C928        H932   1.110       .  S
C928        H933   1.109       .  S
C928        H934   1.111       .  S
C935        C936   1.400       .  A
C935        C940   1.396       .  A
C935        H942   1.085       .  S
C936        C937   1.413       .  A
C937        C938   1.397       .  A
C937        C944   1.507       .  S
C938        C939   1.399       .  A
C938        H943   1.085       .  S
C939        C940   1.411       .  A
C940        C941   1.509       .  S
C941        H945   1.111       .  S
C941        H946   1.111       .  S
C941        H947   1.108       .  S
C944        H948   1.108       .  S
C944        H949   1.111       .  S
C944        H950   1.111       .  S
C951        C952   1.412       .  A
C951        C956   1.409       .  A
C951        H958   1.084       .  S
C952        C953   1.423       .  A
C953        C954   1.393       .  A
C953        C960   1.512       .  S
C954        C955   1.398       .  A
C954        H959   1.085       .  S
C955        C956   1.409       .  A
C956        C957   1.505       .  S
C957        H961   1.111       .  S
C957        H962   1.107       .  S
C957        H963   1.110       .  S
C960        H964   1.110       .  S
C960        H965   1.109       .  S
C960        H966   1.111       .  S
C967        C968   1.407       .  A
C967        C972   1.401       .  A
C967        H974   1.084       .  S
C968        C969   1.421       .  A
C969        C970   1.398       .  A
C969        C976   1.508   1_556  S
C970        C971   1.395       .  A
C970        H975   1.083       .  S
C971        C972   1.407       .  A
C972        C973   1.506       .  S
C973        H977   1.111       .  S
C973        H978   1.110       .  S
C973        H979   1.110       .  S
C976        H980   1.109       .  S
C976        H981   1.110       .  S
C976        H982   1.111       .  S
C983        C984   1.400       .  A
C983        C988   1.403       .  A
C983        H990   1.084       .  S
C984        C985   1.418       .  A
C985        C986   1.404       .  A
C985        C992   1.508   1_556  S
C986        C987   1.400       .  A
C986        H991   1.085       .  S
C987        C988   1.415       .  A
C988        C989   1.508       .  S
C989        H993   1.111       .  S
C989        H994   1.108       .  S
C989        H995   1.108       .  S
C992        H996   1.108       .  S
C992        H997   1.110       .  S
C992        H998   1.111   1_554  S
C999       C1000   1.400       .  A
C999       C1004   1.398       .  A
C999       H1006   1.083       .  S
C1000      C1001   1.417       .  A
C1001      C1002   1.401       .  A
C1001      C1008   1.509       .  S
C1002      C1003   1.404       .  A
C1002      H1007   1.085       .  S
C1003      C1004   1.415       .  A
C1004      C1005   1.507       .  S
C1005      H1009   1.111       .  S
C1005      H1010   1.108       .  S
C1005      H1011   1.110       .  S
C1008      H1012   1.107       .  S
C1008      H1013   1.111       .  S
C1008      H1014   1.111       .  S
C1015      C1016   1.405       .  A
C1015      C1020   1.402       .  A
C1015      H1022   1.084       .  S
C1016      C1017   1.417       .  A
C1017      C1018   1.400       .  A
C1017      C1024   1.506       .  S
C1018      C1019   1.396       .  A
C1018      H1023   1.082       .  S
C1019      C1020   1.409       .  A
C1020      C1021   1.507       .  S
C1021      H1025   1.111       .  S
C1021      H1026   1.109       .  S
C1021      H1027   1.111       .  S
C1024      H1028   1.107       .  S
C1024      H1029   1.111       .  S
C1024      H1030   1.111       .  S
C1031      C1032   1.401       .  A
C1031      C1036   1.399       .  A
C1031      H1038   1.085       .  S
C1032      C1033   1.416       .  A
C1033      C1034   1.400       .  A
C1033      C1040   1.508       .  S
C1034      C1035   1.399       .  A
C1034      H1039   1.085       .  S
C1035      C1036   1.411       .  A
C1036      C1037   1.505       .  S
C1037      H1041   1.111       .  S
C1037      H1042   1.109       .  S
C1037      H1043   1.109       .  S
C1040      H1044   1.107       .  S
C1040      H1045   1.110       .  S
C1040      H1046   1.111       .  S
C1047      C1048   1.400       .  A
C1047      C1052   1.395       .  A
C1047      H1054   1.085       .  S
C1048      C1049   1.416       .  A
C1049      C1050   1.400       .  A
C1049      C1056   1.508       .  S
C1050      C1051   1.402       .  A
C1050      H1055   1.084       .  S
C1051      C1052   1.416       .  A
C1052      C1053   1.510       .  S
C1053      H1057   1.111       .  S
C1053      H1058   1.109       .  S
C1053      H1059   1.110       .  S
C1056      H1060   1.110       .  S
C1056      H1061   1.109       .  S
C1056      H1062   1.111       .  S
C1063      C1064   1.399       .  A
C1063      C1068   1.400       .  A
C1063      H1070   1.085       .  S
C1064      C1065   1.419       .  A
C1065      C1066   1.403       .  A
C1065      C1072   1.508   1_556  S
C1066      C1067   1.400       .  A
C1066      H1071   1.085       .  S
C1067      C1068   1.418       .  A
C1068      C1069   1.508       .  S
C1069      H1073   1.110       .  S
C1069      H1074   1.110       .  S
C1069      H1075   1.108       .  S
C1072      H1076   1.111       .  S
C1072      H1077   1.105       .  S
C1072      H1078   1.110   1_554  S
C1079      C1080   1.406       .  A
C1079      C1084   1.407       .  A
C1079      H1086   1.084       .  S
C1080      C1081   1.413       .  A
C1081      C1082   1.404       .  A
C1081      C1088   1.508       .  S
C1082      C1083   1.405       .  A
C1082      H1087   1.085       .  S
C1083      C1084   1.412       .  A
C1084      C1085   1.506       .  S
C1085      H1089   1.111       .  S
C1085      H1090   1.110       .  S
C1085      H1091   1.110       .  S
C1088      H1092   1.111       .  S
C1088      H1093   1.110       .  S
C1088      H1094   1.111       .  S
C1095      C1096   1.404       .  A
C1095      C1100   1.399       .  A
C1095      H1102   1.084       .  S
C1096      C1097   1.411       .  A
C1097      C1098   1.397       .  A
C1097      C1104   1.510       .  S
C1098      C1099   1.407       .  A
C1098      H1103   1.085       .  S
C1099      C1100   1.412       .  A
C1100      C1101   1.507       .  S
C1101      H1105   1.111       .  S
C1101      H1106   1.110       .  S
C1101      H1107   1.110       .  S
C1104      H1108   1.110       .  S
C1104      H1109   1.109       .  S
C1104      H1110   1.111       .  S
C1111      C1112   1.404       .  A
C1111      C1116   1.397       .  A
C1111      H1118   1.085       .  S
C1112      C1113   1.410       .  A
C1113      C1114   1.403       .  A
C1113      C1120   1.506       .  S
C1114      C1115   1.407       .  A
C1114      H1119   1.084       .  S
C1115      C1116   1.411       .  A
C1116      C1117   1.509       .  S
C1117      H1121   1.111       .  S
C1117      H1122   1.109       .  S
C1117      H1123   1.111       .  S
C1120      H1124   1.110       .  S
C1120      H1125   1.110       .  S
C1120      H1126   1.111       .  S
C1127      C1128   1.411       .  A
C1127      C1132   1.396       .  A
C1127      H1134   1.084       .  S
C1128      C1129   1.419       .  A
C1129      C1130   1.409       .  A
C1129      C1136   1.505       .  S
C1130      C1131   1.402       .  A
C1130      H1135   1.084       .  S
C1131      C1132   1.405       .  A
C1132      C1133   1.508       .  S
C1133      H1137   1.111       .  S
C1133      H1138   1.106       .  S
C1133      H1139   1.110       .  S
C1136      H1140   1.108       .  S
C1136      H1141   1.110       .  S
C1136      H1142   1.111       .  S
C1143      C1144   1.398       .  A
C1143      C1148   1.400       .  A
C1143      H1150   1.085       .  S
C1144      C1145   1.407       .  A
C1145      C1146   1.402       .  A
C1145      C1152   1.508       .  S
C1146      C1147   1.408       .  A
C1146      H1151   1.084       .  S
C1147      C1148   1.415       .  A
C1148      C1149   1.505       .  S
C1149      H1153   1.111       .  S
C1149      H1154   1.110       .  S
C1149      H1155   1.108       .  S
C1152      H1156   1.111       .  S
C1152      H1157   1.110       .  S
C1152      H1158   1.111       .  S
C1159      C1160   1.404       .  A
C1159      C1164   1.400       .  A
C1159      H1166   1.085       .  S
C1160      C1161   1.420       .  A
C1161      C1162   1.400       .  A
C1161      C1168   1.508       .  S
C1162      C1163   1.396       .  A
C1162      H1167   1.085       .  S
C1163      C1164   1.411       .  A
C1164      C1165   1.508       .  S
C1165      H1169   1.110       .  S
C1165      H1170   1.109       .  S
C1165      H1171   1.110       .  S
C1168      H1172   1.108       .  S
C1168      H1173   1.110       .  S
C1168      H1174   1.111       .  S
C1175      C1176   1.402       .  A
C1175      C1180   1.401       .  A
C1175      H1182   1.082       .  S
C1176      C1177   1.417       .  A
C1177      C1178   1.397       .  A
C1177      C1184   1.508       .  S
C1178      C1179   1.400       .  A
C1178      H1183   1.085       .  S
C1179      C1180   1.417       .  A
C1180      C1181   1.508       .  S
C1181      H1185   1.111       .  S
C1181      H1186   1.110       .  S
C1181      H1187   1.110       .  S
C1184      H1188   1.108       .  S
C1184      H1189   1.111       .  S
C1184      H1190   1.111       .  S
C1191      C1192   1.403       .  A
C1191      C1196   1.404       .  A
C1191      H1198   1.084       .  S
C1192      C1193   1.410       .  A
C1193      C1194   1.398       .  A
C1193      C1200   1.510       .  S
C1194      C1195   1.407       .  A
C1194      H1199   1.085       .  S
C1195      C1196   1.413       .  A
C1196      C1197   1.505       .  S
C1197      H1201   1.111       .  S
C1197      H1202   1.106       .  S
C1197      H1203   1.110       .  S
C1200      H1204   1.111       .  S
C1200      H1205   1.107       .  S
C1200      H1206   1.110       .  S
C1207      C1208   1.405       .  A
C1207      C1212   1.400       .  A
C1207      H1214   1.085       .  S
C1208      C1209   1.412       .  A
C1209      C1210   1.403       .  A
C1209      C1216   1.508       .  S
C1210      C1211   1.405       .  A
C1210      H1215   1.084       .  S
C1211      C1212   1.410       .  A
C1212      C1213   1.508       .  S
C1213      H1217   1.111       .  S
C1213      H1218   1.111       .  S
C1213      H1219   1.110       .  S
C1216      H1220   1.110       .  S
C1216      H1221   1.110       .  S
C1216      H1222   1.111       .  S
C1223      C1224   1.395       .  A
C1223      C1228   1.400       .  A
C1223      H1230   1.081       .  S
C1224      C1225   1.410       .  A
C1225      C1226   1.402       .  A
C1225      C1232   1.507       .  S
C1226      C1227   1.405       .  A
C1226      H1231   1.084       .  S
C1227      C1228   1.420       .  A
C1228      C1229   1.506   1_556  S
C1229      H1233   1.111       .  S
C1229      H1234   1.107       .  S
C1229      H1235   1.110       .  S
C1232      H1236   1.109       .  S
C1232      H1237   1.111       .  S
C1232      H1238   1.111       .  S
C1239      C1240   1.399       .  A
C1239      C1244   1.397       .  A
C1239      H1246   1.085       .  S
C1240      C1241   1.412       .  A
C1241      C1242   1.396       .  A
C1241      C1248   1.508       .  S
C1242      C1243   1.401       .  A
C1242      H1247   1.085       .  S
C1243      C1244   1.414       .  A
C1244      C1245   1.508       .  S
C1245      H1249   1.111       .  S
C1245      H1250   1.109       .  S
C1245      H1251   1.110       .  S
C1248      H1252   1.111       .  S
C1248      H1253   1.108       .  S
C1248      H1254   1.111       .  S
C1255      C1256   1.403       .  A
C1255      C1260   1.399       .  A
C1255      H1262   1.084       .  S
C1256      C1257   1.417       .  A
C1257      C1258   1.398       .  A
C1257      C1264   1.507   1_556  S
C1258      C1259   1.396       .  A
C1258      H1263   1.085       .  S
C1259      C1260   1.410       .  A
C1260      C1261   1.507       .  S
C1261      H1265   1.111       .  S
C1261      H1266   1.108       .  S
C1261      H1267   1.110       .  S
C1264      H1268   1.108       .  S
C1264      H1269   1.110       .  S
C1264      H1270   1.111       .  S
C1271      C1272   1.404       .  A
C1271      C1276   1.405       .  A
C1271      H1278   1.084       .  S
C1272      C1273   1.410       .  A
C1273      C1274   1.404       .  A
C1273      C1280   1.504       .  S
C1274      C1275   1.405       .  A
C1274      H1279   1.084       .  S
C1275      C1276   1.415       .  A
C1276      C1277   1.508       .  S
C1277      H1281   1.111       .  S
C1277      H1282   1.111       .  S
C1277      H1283   1.109       .  S
C1280      H1284   1.111       .  S
C1280      H1285   1.110       .  S
C1280      H1286   1.111       .  S
C1287      C1288   1.399       .  A
C1287      C1292   1.396       .  A
C1287      H1294   1.085       .  S
C1288      C1289   1.417       .  A
C1289      C1290   1.403       .  A
C1289      C1296   1.508       .  S
C1290      C1291   1.403       .  A
C1290      H1295   1.084       .  S
C1291      C1292   1.417       .  A
C1292      C1293   1.508       .  S
C1293      H1297   1.111       .  S
C1293      H1298   1.108       .  S
C1293      H1299   1.111       .  S
C1296      H1300   1.110       .  S
C1296      H1301   1.109       .  S
C1296      H1302   1.111       .  S
C1303      C1304   1.399       .  A
C1303      C1308   1.401       .  A
C1303      H1310   1.084       .  S
C1304      C1305   1.410       .  A
C1305      C1306   1.408       .  A
C1305      C1312   1.505       .  S
C1306      C1307   1.408       .  A
C1306      H1311   1.084       .  S
C1307      C1308   1.418       .  A
C1308      C1309   1.507       .  S
C1309      H1313   1.111       .  S
C1309      H1314   1.106       .  S
C1309      H1315   1.110       .  S
C1312      H1316   1.111       .  S
C1312      H1317   1.110       .  S
C1312      H1318   1.111       .  S
C1319      C1320   1.398       .  A
C1319      C1324   1.402       .  A
C1319      H1326   1.084       .  S
C1320      C1321   1.411       .  A
C1321      C1322   1.409       .  A
C1321      C1328   1.505       .  S
C1322      C1323   1.407       .  A
C1322      H1327   1.084       .  S
C1323      C1324   1.421       .  A
C1324      C1325   1.509       .  S
C1325      H1329   1.111       .  S
C1325      H1330   1.105       .  S
C1325      H1331   1.110       .  S
C1328      H1332   1.110       .  S
C1328      H1333   1.110       .  S
C1328      H1334   1.111       .  S
C1335      C1336   1.407       .  A
C1335      C1340   1.411       .  A
C1335      H1342   1.084       .  S
C1336      C1337   1.414       .  A
C1337      C1338   1.402       .  A
C1337      C1344   1.508       .  S
C1338      C1339   1.407       .  A
C1338      H1343   1.084       .  S
C1339      C1340   1.417       .  A
C1340      C1341   1.507       .  S
C1341      H1345   1.111       .  S
C1341      H1346   1.111       .  S
C1341      H1347   1.109       .  S
C1344      H1348   1.110       .  S
C1344      H1349   1.106       .  S
C1344      H1350   1.110       .  S
C1351      C1352   1.400       .  A
C1351      C1356   1.405       .  A
C1351      H1358   1.084       .  S
C1352      C1353   1.415       .  A
C1353      C1354   1.409       .  A
C1353      C1360   1.507       .  S
C1354      C1355   1.410       .  A
C1354      H1359   1.084       .  S
C1355      C1356   1.422       .  A
C1356      C1357   1.504       .  S
C1357      H1361   1.111       .  S
C1357      H1362   1.111       .  S
C1357      H1363   1.106       .  S
C1360      H1364   1.108       .  S
C1360      H1365   1.110       .  S
C1360      H1366   1.111       .  S
C1367      C1368   1.402       .  A
C1367      C1372   1.406       .  A
C1367      H1374   1.084       .  S
C1368      C1369   1.410       .  A
C1369      C1370   1.399       .  A
C1369      C1376   1.508       .  S
C1370      C1371   1.405       .  A
C1370      H1375   1.084       .  S
C1371      C1372   1.418       .  A
C1372      C1373   1.507       .  S
C1373      H1377   1.111       .  S
C1373      H1378   1.110       .  S
C1373      H1379   1.110       .  S
C1376      H1380   1.111       .  S
C1376      H1381   1.109       .  S
C1376      H1382   1.111       .  S
C1383      C1384   1.403       .  A
C1383      C1388   1.408       .  A
C1383      H1390   1.084       .  S
C1384      C1385   1.410       .  A
C1385      C1386   1.399       .  A
C1385      C1392   1.509       .  S
C1386      C1387   1.408       .  A
C1386      H1391   1.083       .  S
C1387      C1388   1.417       .  A
C1388      C1389   1.506       .  S
C1389      H1393   1.111       .  S
C1389      H1394   1.109       .  S
C1389      H1395   1.110       .  S
C1392      H1396   1.110       .  S
C1392      H1397   1.109       .  S
C1392      H1398   1.111       .  S
C1399      C1400   1.410       .  A
C1399      C1404   1.409       .  A
C1399      H1406   1.084       .  S
C1400      C1401   1.421       .  A
C1401      C1402   1.399       .  A
C1401      C1408   1.504       .  S
C1402      C1403   1.396       .  A
C1402      H1407   1.085       .  S
C1403      C1404   1.410       .  A
C1404      C1405   1.505       .  S
C1405      H1409   1.111       .  S
C1405      H1410   1.110       .  S
C1405      H1411   1.111       .  S
C1408      H1412   1.110       .  S
C1408      H1413   1.105       .  S
C1408      H1414   1.111       .  S
C1415      C1416   1.400       .  A
C1415      C1420   1.403       .  A
C1415      H1422   1.084       .  S
C1416      C1417   1.414       .  A
C1417      C1418   1.406       .  A
C1417      C1424   1.506       .  S
C1418      C1419   1.404       .  A
C1418      H1423   1.084       .  S
C1419      C1420   1.420       .  A
C1420      C1421   1.508       .  S
C1421      H1425   1.111       .  S
C1421      H1426   1.110       .  S
C1421      H1427   1.106       .  S
C1424      H1428   1.110       .  S
C1424      H1429   1.108       .  S
C1424      H1430   1.110       .  S
C1431      C1432   1.405       .  A
C1431      C1436   1.405       .  A
C1431      H1438   1.085       .  S
C1432      C1433   1.415       .  A
C1433      C1434   1.401       .  A
C1433      C1440   1.508       .  S
C1434      C1435   1.401       .  A
C1434      H1439   1.084       .  S
C1435      C1436   1.413       .  A
C1436      C1437   1.506       .  S
C1437      H1441   1.110       .  S
C1437      H1442   1.108       .  S
C1437      H1443   1.111       .  S
C1440      H1444   1.105       .  S
C1440      H1445   1.111       .  S
C1440      H1446   1.111       .  S
C1447      C1448   1.399       .  A
C1447      C1452   1.399       .  A
C1447      H1454   1.085       .  S
C1448      C1449   1.411       .  A
C1449      C1450   1.403       .  A
C1449      C1456   1.506       .  S
C1450      C1451   1.405       .  A
C1450      H1455   1.084       .  S
C1451      C1452   1.418       .  A
C1452      C1453   1.508       .  S
C1453      H1457   1.111       .  S
C1453      H1458   1.106       .  S
C1453      H1459   1.111       .  S
C1456      H1460   1.109       .  S
C1456      H1461   1.110       .  S
C1456      H1462   1.110       .  S
C1463      C1464   1.408       .  A
C1463      C1468   1.406       .  A
C1463      H1470   1.084       .  S
C1464      C1465   1.421       .  A
C1465      C1466   1.402       .  A
C1465      C1472   1.505       .  S
C1466      C1467   1.400       .  A
C1466      H1471   1.085       .  S
C1467      C1468   1.412       .  A
C1468      C1469   1.507       .  S
C1469      H1473   1.110       .  S
C1469      H1474   1.109       .  S
C1469      H1475   1.110       .  S
C1472      H1476   1.110       .  S
C1472      H1477   1.106       .  S
C1472      H1478   1.111       .  S
C1479      C1480   1.398       .  A
C1479      C1484   1.403       .  A
C1479      H1486   1.085       .  S
C1480      C1481   1.415       .  A
C1481      C1482   1.407       .  A
C1481      C1488   1.507       .  S
C1482      C1483   1.408       .  A
C1482      H1487   1.084       .  S
C1483      C1484   1.423       .  A
C1484      C1485   1.504       .  S
C1485      H1489   1.111       .  S
C1485      H1490   1.110       .  S
C1485      H1491   1.105       .  S
C1488      H1492   1.110       .  S
C1488      H1493   1.109       .  S
C1488      H1494   1.110       .  S
C1495      C1496   1.404       .  A
C1495      C1500   1.396       .  A
C1495      H1502   1.085       .  S
C1496      C1497   1.415       .  A
C1497      C1498   1.406       .  A
C1497      C1504   1.507       .  S
C1498      C1499   1.402       .  A
C1498      H1503   1.084       .  S
C1499      C1500   1.412       .  A
C1500      C1501   1.509       .  S
C1501      H1505   1.110       .  S
C1501      H1506   1.110       .  S
C1501      H1507   1.107       .  S
C1504      H1508   1.109       .  S
C1504      H1509   1.111       .  S
C1504      H1510   1.111       .  S
C1511      C1512   1.406       .  A
C1511      C1516   1.398       .  A
C1511      H1518   1.084       .  S
C1512      C1513   1.418       .  A
C1513      C1514   1.406       .  A
C1513      C1520   1.507       .  S
C1514      C1515   1.402       .  A
C1514      H1519   1.084       .  S
C1515      C1516   1.410       .  A
C1516      C1517   1.509       .  S
C1517      H1521   1.111       .  S
C1517      H1522   1.110       .  S
C1517      H1523   1.109       .  S
C1520      H1524   1.109       .  S
C1520      H1525   1.110       .  S
C1520      H1526   1.111       .  S
C1527      C1528   1.403       .  A
C1527      C1532   1.408       .  A
C1527      H1534   1.084       .  S
C1528      C1529   1.414       .  A
C1529      C1530   1.400       .  A
C1529      C1536   1.509       .  S
C1530      C1531   1.406       .  A
C1530      H1535   1.085       .  S
C1531      C1532   1.417       .  A
C1532      C1533   1.507       .  S
C1533      H1537   1.111       .  S
C1533      H1538   1.111       .  S
C1533      H1539   1.109       .  S
C1536      H1540   1.110       .  S
C1536      H1541   1.107       .  S
C1536      H1542   1.110       .  S
C1543      C1544   1.402       .  A
C1543      C1548   1.407       .  A
C1543      H1550   1.084       .  S
C1544      C1545   1.411       .  A
C1545      C1546   1.402       .  A
C1545      C1552   1.508       .  S
C1546      C1547   1.408       .  A
C1546      H1551   1.084       .  S
C1547      C1548   1.419       .  A
C1548      C1549   1.507       .  S
C1549      H1553   1.111       .  S
C1549      H1554   1.110       .  S
C1549      H1555   1.109       .  S
C1552      H1556   1.109       .  S
C1552      H1557   1.110       .  S
C1552      H1558   1.111       .  S
C1559      C1560   1.403       .  A
C1559      C1564   1.411       .  A
C1559      H1566   1.084       .  S
C1560      C1561   1.412       .  A
C1561      C1562   1.401   1_556  A
C1561      C1568   1.508   1_556  S
C1562      C1563   1.407   1_554  A
C1562      H1567   1.084       .  S
C1563      C1564   1.422       .  A
C1564      C1565   1.507       .  S
C1565      H1569   1.111       .  S
C1565      H1570   1.110       .  S
C1565      H1571   1.110       .  S
C1568      H1572   1.107   1_554  S
C1568      H1573   1.110       .  S
C1568      H1574   1.111       .  S
C1575      C1576   1.400       .  A
C1575      C1580   1.400   1_556  A
C1575      H1582   1.085       .  S
C1576      C1577   1.410       .  A
C1577      C1578   1.408       .  A
C1577      C1584   1.505       .  S
C1578      C1579   1.410       .  A
C1578      H1583   1.084       .  S
C1579      C1580   1.419   1_556  A
C1580      C1581   1.509       .  S
C1581      H1585   1.111       .  S
C1581      H1586   1.108       .  S
C1581      H1587   1.110       .  S
C1584      H1588   1.109       .  S
C1584      H1589   1.110       .  S
C1584      H1590   1.111       .  S
C1591      C1592   1.401       .  A
C1591      C1596   1.400   1_556  A
C1591      H1598   1.085       .  S
C1592      C1593   1.412       .  A
C1593      C1594   1.407       .  A
C1593      C1600   1.506       .  S
C1594      C1595   1.409       .  A
C1594      H1599   1.084       .  S
C1595      C1596   1.418   1_556  A
C1596      C1597   1.508       .  S
C1597      H1601   1.111       .  S
C1597      H1602   1.110       .  S
C1597      H1603   1.108       .  S
C1600      H1604   1.110       .  S
C1600      H1605   1.108       .  S
C1600      H1606   1.111       .  S
C1607      C1608   1.409       .  A
C1607      C1612   1.409       .  A
C1607      H1614   1.084       .  S
C1608      C1609   1.419   1_556  A
C1609      C1610   1.397   1_554  A
C1609      C1616   1.509       .  S
C1610      C1611   1.400       .  A
C1610      H1615   1.083       .  S
C1611      C1612   1.414       .  A
C1612      C1613   1.505       .  S
C1613      H1617   1.110       .  S
C1613      H1618   1.111       .  S
C1613      H1619   1.109       .  S
C1616      H1620   1.110       .  S
C1616      H1621   1.108       .  S
C1616      H1622   1.111       .  S
C1623      C1624   1.401       .  A
C1623      C1628   1.410       .  A
C1623      H1630   1.084       .  S
C1624      C1625   1.411       .  A
C1625      C1626   1.398       .  A
C1625      C1632   1.509       .  S
C1626      C1627   1.407       .  A
C1626      H1631   1.084       .  S
C1627      C1628   1.424       .  A
C1628      C1629   1.507       .  S
C1629      H1633   1.111       .  S
C1629      H1634   1.110       .  S
C1629      H1635   1.110       .  S
C1632      H1636   1.108       .  S
C1632      H1637   1.110       .  S
C1632      H1638   1.111       .  S
C1639      C1640   1.410       .  A
C1639      C1644   1.397       .  A
C1639      H1646   1.084       .  S
C1640      C1641   1.425       .  A
C1641      C1642   1.412       .  A
C1641      C1648   1.507       .  S
C1642      C1643   1.401       .  A
C1642      H1647   1.084       .  S
C1643      C1644   1.411       .  A
C1644      C1645   1.511       .  S
C1645      H1649   1.110       .  S
C1645      H1650   1.107       .  S
C1645      H1651   1.110       .  S
C1648      H1652   1.110       .  S
C1648      H1653   1.110       .  S
C1648      H1654   1.111       .  S
C1655      C1656   1.408       .  A
C1655      C1660   1.397       .  A
C1655      H1662   1.084       .  S
C1656      C1657   1.423       .  A
C1657      C1658   1.409       .  A
C1657      C1664   1.505       .  S
C1658      C1659   1.400       .  A
C1658      H1663   1.084       .  S
C1659      C1660   1.410       .  A
C1660      C1661   1.509       .  S
C1661      H1665   1.111       .  S
C1661      H1666   1.108       .  S
C1661      H1667   1.110       .  S
C1664      H1668   1.110       .  S
C1664      H1669   1.107       .  S
C1664      H1670   1.111       .  S
C1671      C1672   1.400       .  A
C1671      C1676   1.398       .  A
C1671      H1678   1.083       .  S
C1672      C1673   1.413       .  A
C1673      C1674   1.408       .  A
C1673      C1680   1.505       .  S
C1674      C1675   1.410       .  A
C1674      H1679   1.084       .  S
C1675      C1676   1.420       .  A
C1676      C1677   1.509       .  S
C1677      H1681   1.111       .  S
C1677      H1682   1.111       .  S
C1677      H1683   1.109       .  S
C1680      H1684   1.110       .  S
C1680      H1685   1.109       .  S
C1680      H1686   1.110       .  S
