geometry optimzed in LAMMPS
_audit_creation_date              2020-11-30 
_audit_creation_method            'lammps2cif' 
_symmetry_space_group_name_H-M    'P1' 
_symmetry_Int_Tables_number       1 
_symmetry_cell_setting            triclinic 
loop_ 
_symmetry_equiv_pos_as_xyz 
  x,y,z 
_cell_length_a                    26.94717464 
_cell_length_b                    26.944138118459897 
_cell_length_c                    26.946732823961916 
_cell_angle_alpha                 89.99940831134667 
_cell_angle_beta                  90.01675742243087 
_cell_angle_gamma                 89.99052453358581 
loop_ 
_atom_site_label 
_atom_site_type_symbol 
_atom_site_fract_x 
_atom_site_fract_y 
_atom_site_fract_z 
_atom_site_charge 
O1          O  0.32866869  0.67369368  0.75039315    -0.78400
O2          O  0.32854315  0.81952388  0.74825291    -0.78400
O3          O  0.26872863  0.70629910  0.64069165    -0.78400
O4          O  0.26887547  0.78679637  0.85804561    -0.78400
O5          O  0.32868848  0.74791185  0.67662198    -0.78500
O6          O  0.32883346  0.74528461  0.82201173    -0.78400
O7          O  0.26845802  0.85532064  0.78972775    -0.78400
O8          O  0.26857173  0.63778118  0.70901426    -0.78500
C9          C  0.31427997  0.64117967  0.72019184     1.11300
C10         C  0.31415812  0.85197916  0.77852168     1.11200
C11         C  0.31441846  0.71756804  0.64417625     1.11300
C12         C  0.31456969  0.77555483  0.85452118     1.11200
O13         O  0.23321183  0.70616267  0.85814715    -0.78400
O14         O  0.23291784  0.78687857  0.64063864    -0.78500
O15         O  0.17287527  0.67375519  0.74812610    -0.78400
O16         O  0.17275144  0.81917578  0.75075713    -0.78400
O17         O  0.23263474  0.85520834  0.70915446    -0.78500
O18         O  0.23292118  0.63783301  0.78963993    -0.78400
O19         O  0.17304604  0.74754841  0.82234179    -0.78400
O20         O  0.17289086  0.74540248  0.67652117    -0.78500
Co21       Co  0.28053553  0.69528199  0.80050659     1.51500
Co22       Co  0.28034027  0.79784497  0.69820472     1.51700
Co23       Co  0.22112906  0.69535164  0.69812418     1.51600
Co24       Co  0.22114591  0.79767077  0.80067962     1.51500
O25         O  0.25078568  0.74653796  0.74937679    -1.40300
C26         C  0.18749578  0.71732566  0.85481562     1.11200
C27         C  0.18722631  0.77565598  0.64403579     1.11300
C28         C  0.18721211  0.64129251  0.77842759     1.11200
C29         C  0.18696040  0.85167363  0.72045285     1.11200
O30         O  0.75167756  0.32474194  0.67704341    -0.78400
O31         O  0.74947516  0.32441755  0.82281586    -0.78400
O32         O  0.64196301  0.26465863  0.70949250    -0.78400
O33         O  0.85933653  0.26474225  0.79004328    -0.78400
O34         O  0.67781281  0.32461362  0.75117590    -0.78500
O35         O  0.82327571  0.32477083  0.74863230    -0.78400
O36         O  0.79100513  0.26428909  0.85852700    -0.78400
O37         O  0.71031112  0.26469577  0.64102723    -0.78500
C38         C  0.72149314  0.31039995  0.64449327     1.11300
C39         C  0.77978547  0.30999994  0.85523280     1.11200
C40         C  0.64539421  0.31034550  0.72079475     1.11300
C41         C  0.85581035  0.31045159  0.77885415     1.11200
O42         O  0.85943909  0.22917991  0.70936666    -0.78400
O43         O  0.64194776  0.22874155  0.79001482    -0.78500
O44         O  0.74949798  0.16893686  0.67683047    -0.78400
O45         O  0.75207785  0.16860372  0.82225241    -0.78400
O46         O  0.71045638  0.22844115  0.85836522    -0.78500
O47         O  0.79095329  0.22904879  0.64100644    -0.78400
O48         O  0.82364435  0.16897449  0.75066836    -0.78400
O49         O  0.67788840  0.16879341  0.74844039    -0.78500
Co50       Co  0.80179467  0.27655565  0.69855123     1.51500
Co51       Co  0.69946093  0.27620907  0.80105860     1.51700
Co52       Co  0.69945185  0.21713075  0.69848937     1.51600
Co53       Co  0.80197804  0.21702376  0.80083695     1.51500
O54         O  0.75066804  0.24673444  0.74973591    -1.40300
C55         C  0.85610840  0.18344614  0.72047038     1.11200
C56         C  0.64539183  0.18306142  0.77871303     1.11300
C57         C  0.77976517  0.18333046  0.64438442     1.11200
C58         C  0.72176895  0.18276471  0.85475903     1.11200
O59         O  0.67819632  0.74525525  0.17185508    -0.78400
O60         O  0.82366944  0.74775085  0.17168823    -0.78400
O61         O  0.71068039  0.85506447  0.23231156    -0.78400
O62         O  0.79134322  0.63754850  0.23153859    -0.78400
O63         O  0.75204927  0.81936727  0.17209128    -0.78500
O64         O  0.74980898  0.67362917  0.17162724    -0.78400
O65         O  0.85970915  0.70601607  0.23150589    -0.78400
O66         O  0.64232679  0.78659748  0.23201692    -0.78500
C67         C  0.64572245  0.77548751  0.18628614     1.11300
C68         C  0.85615683  0.71739649  0.18584847     1.11200
C69         C  0.72181024  0.85180410  0.18658438     1.11300
C70         C  0.78006612  0.64108729  0.18586019     1.11200
O71         O  0.71079410  0.63748968  0.26735712    -0.78400
O72         O  0.79132628  0.85487995  0.26796437    -0.78500
O73         O  0.67832658  0.74713675  0.32763732    -0.78400
O74         O  0.82407432  0.74487539  0.32749329    -0.78400
O75         O  0.85981572  0.78651489  0.26748441    -0.78500
O76         O  0.64233855  0.70587990  0.26749437    -0.78400
O77         O  0.75241325  0.67321250  0.32743481    -0.78400
O78         O  0.74988839  0.81871239  0.32787398    -0.78500
Co79       Co  0.69982718  0.69509930  0.21995582     1.51500
Co80       Co  0.80217912  0.79759023  0.22016329     1.51700
Co81       Co  0.69984719  0.79733616  0.27957548     1.51600
Co82       Co  0.80234984  0.69495233  0.27915284     1.51500
O83         O  0.75105545  0.74624076  0.24971401    -1.40300
C84         C  0.72204451  0.64082939  0.31306325     1.11200
C85         C  0.78009029  0.85128555  0.31364794     1.11300
C86         C  0.64578218  0.71699112  0.31321659     1.11200
C87         C  0.85648199  0.77522747  0.31316893     1.11200
C88         C  0.53852399  0.99628313  0.03708495     0.04000
C89         C  0.53856141  0.03378246  0.99950082     0.04000
C90         C  0.50098376  0.03381551  0.96198954     0.04000
C91         C  0.46342312  0.99630251  0.96200650     0.04000
C92         C  0.46347697  0.95871674  0.99949946     0.04000
C93         C  0.50099596  0.95873786  0.03707106     0.04000
C94         C  0.61831856  0.03583061  0.14371825     0.81900
N95         N  0.58216457  0.03560944  0.10849905    -0.76400
C96         C  0.57785338  0.99640001  0.07666857     0.84400
N97         N  0.60978494  0.95730375  0.08136452    -0.76300
C98         C  0.64471462  0.95730973  0.11780788     0.84500
N99         N  0.64890766  0.99662847  0.14829250    -0.78000
C100        C  0.61893667  0.14018596  0.03851855     0.81900
N101        N  0.58260638  0.10515776  0.03849129    -0.76400
C102        C  0.57807504  0.07316942  0.99942900     0.84400
N103        N  0.60995611  0.07753324  0.96027212    -0.76300
C104        C  0.64507332  0.11377811  0.96009327     0.84500
N105        N  0.64948220  0.14441500  0.99926748    -0.78000
C106        C  0.35669993  0.03574622  0.88223239     0.81900
N107        N  0.35226556  0.99659366  0.85156718    -0.76400
C108        C  0.38286683  0.95735373  0.85569790     0.84400
N109        N  0.41928190  0.95736934  0.89065555    -0.76300
C110        C  0.42384965  0.99641248  0.92266111     0.84500
N111        N  0.39190927  0.03555196  0.91840358    -0.78000
C112        C  0.46162058  0.14041591  0.88205435     0.81900
N113        N  0.46179447  0.10526710  0.91826901    -0.76400
C114        C  0.50091660  0.07332400  0.92259881     0.84400
N115        N  0.53997651  0.07783633  0.89062149    -0.76300
C116        C  0.54001283  0.11419428  0.85561339     0.84500
N117        N  0.50078159  0.14479788  0.85140790    -0.78000
C118        C  0.54017440  0.85246329  0.11755418     0.81900
N119        N  0.50090678  0.84817210  0.14807789    -0.76400
C120        C  0.46166083  0.87872059  0.14359841     0.84400
N121        N  0.46179317  0.91493413  0.10844426    -0.76300
C122        C  0.50095283  0.91934349  0.07657969     0.84500
N123        N  0.54008863  0.88745085  0.08117797    -0.78000
C124        C  0.35709182  0.87838770  0.03854683     0.81900
N125        N  0.39213701  0.91469777  0.03851018    -0.76400
C126        C  0.42408362  0.91921740  0.99943066     0.84400
N127        N  0.41966226  0.88734767  0.96025957    -0.76300
C128        C  0.38339788  0.85225068  0.96008080     0.84500
N129        N  0.35279831  0.84784727  0.99927970    -0.78000
C130        C  0.03849016  0.49656900  0.96197235     0.04000
C131        C  0.00097381  0.45901348  0.96200236     0.04000
C132        C  0.96351554  0.45892985  0.99960627     0.04000
C133        C  0.96350880  0.49648832  0.03712034     0.04000
C134        C  0.00100005  0.53407159  0.03708712     0.04000
C135        C  0.03852477  0.53407533  0.99954409     0.04000
C136        C  0.14497415  0.61416586  0.03892271     0.81900
N137        N  0.14940816  0.64472754  0.99968956    -0.76400
C138        C  0.11888448  0.64040717  0.96040868     0.84400
N139        N  0.08255782  0.60537941  0.96046730    -0.76300
C140        C  0.07800639  0.57347831  0.99959093     0.84500
N141        N  0.10986588  0.57791792  0.03876722    -0.78000
C142        C  0.11852861  0.53584082  0.85542126     0.81900
N143        N  0.08229720  0.53573313  0.89055082    -0.76400
C144        C  0.07788816  0.49659671  0.92246789     0.84400
N145        N  0.10979682  0.45746501  0.91794477    -0.76300
C146        C  0.14480265  0.45735685  0.88159878     0.84500
N147        N  0.14909057  0.49659741  0.85102670    -0.78000
C148        C  0.04000843  0.61454405  0.14343762     0.81900
N149        N  0.03999228  0.57817096  0.10844255    -0.76400
C150        C  0.00091832  0.57360470  0.07646343     0.84400
N151        N  0.96175450  0.60549801  0.08079377    -0.76300
C152        C  0.96156683  0.64065818  0.11700085     0.84500
N153        N  0.00074448  0.64509675  0.14763554    -0.78000
C154        C  0.85695371  0.53566885  0.11713613     0.81900
N155        N  0.89207390  0.53557485  0.08090637    -0.76400
C156        C  0.92405629  0.49649192  0.07654234     0.84400
N157        N  0.91961879  0.45739269  0.10849200    -0.76300
C158        C  0.88328977  0.45727733  0.14351351     0.84500
N159        N  0.85264277  0.49646849  0.14775547    -0.78000
C160        C  0.96148768  0.37911016  0.85546907     0.81900
N161        N  0.96168740  0.41531122  0.89062792    -0.76400
C162        C  0.00087661  0.41966104  0.92247887     0.84400
N163        N  0.03996425  0.38771783  0.91788071    -0.76300
C164        C  0.03997710  0.35273545  0.88150531     0.84500
N165        N  0.00068548  0.34850385  0.85098242    -0.78000
C166        C  0.88361600  0.35230690  0.03900269     0.81900
N167        N  0.91984554  0.38744518  0.03881744    -0.76400
C168        C  0.92414435  0.41938842  0.99968823     0.84400
N169        N  0.89211081  0.41489258  0.96065140    -0.76300
C170        C  0.85709359  0.37854972  0.96062657     0.84500
N171        N  0.85292729  0.34794564  0.99985328    -0.78000
C172        C  0.46312129  0.53397177  0.49941066     0.04000
C173        C  0.46312113  0.49640392  0.53693094     0.04000
C174        C  0.50066878  0.45886357  0.53696140     0.04000
C175        C  0.53820826  0.45888246  0.49942884     0.04000
C176        C  0.53820038  0.49639620  0.46186034     0.04000
C177        C  0.50066563  0.53395194  0.46188131     0.04000
C178        C  0.54000473  0.37892840  0.64362965     0.81900
N179        N  0.53984899  0.41512931  0.60845421    -0.76400
C180        C  0.50073185  0.41945035  0.57649089     0.84400
N181        N  0.46166097  0.38746593  0.58101542    -0.76300
C182        C  0.46160560  0.35247490  0.61740303     0.84500
N183        N  0.50083164  0.34829238  0.64801623    -0.78000
C184        C  0.35679560  0.61452854  0.46032632     0.81900
N185        N  0.35257483  0.64506450  0.49959583    -0.76400
C186        C  0.38316995  0.64059676  0.53880120     0.84400
N187        N  0.41937335  0.60542074  0.53863488    -0.76300
C188        C  0.42372712  0.57352511  0.49947326     0.84500
N189        N  0.39177673  0.57812758  0.46036956    -0.78000
C190        C  0.64472829  0.53551725  0.38166691     0.81900
N191        N  0.60964235  0.53544702  0.41794673    -0.76400
C192        C  0.57766073  0.49636546  0.42238259     0.84400
N193        N  0.58209193  0.45723560  0.39044868    -0.76300
C194        C  0.61839750  0.45709500  0.35538567     0.84500
N195        N  0.64901605  0.49628966  0.35108301    -0.78000
C196        C  0.46148350  0.61441414  0.35563991     0.81900
N197        N  0.50077873  0.64490168  0.35130279    -0.76400
C198        C  0.54003929  0.64039543  0.38182776     0.84400
N199        N  0.53989652  0.60526357  0.41805268    -0.76300
C200        C  0.50070905  0.57344113  0.42249857     0.84500
N201        N  0.46155720  0.57805648  0.39063758    -0.78000
C202        C  0.38294487  0.53559043  0.64336023     0.81900
N203        N  0.35242194  0.49632710  0.64772700    -0.76400
C204        C  0.35679041  0.45709402  0.61715739     0.84400
N205        N  0.39182902  0.45722993  0.58084933    -0.76300
C206        C  0.42368499  0.49639106  0.57636288     0.84500
N207        N  0.41920534  0.53551317  0.60827336    -0.78000
C208        C  0.64479884  0.37897243  0.53878278     0.81900
N209        N  0.60962557  0.41516327  0.53863651    -0.76400
C210        C  0.57771334  0.41951342  0.49949700     0.84400
N211        N  0.58226874  0.38758560  0.46040019    -0.76300
C212        C  0.61865289  0.35261153  0.46033032     0.84500
N213        N  0.64924067  0.34837552  0.49957494    -0.78000
C214        C  0.03820510  0.95916115  0.49964048     0.04000
C215        C  0.00064548  0.95912352  0.46212695     0.04000
C216        C  0.96302620  0.99657855  0.46222434     0.04000
C217        C  0.96303555  0.03414329  0.49973620     0.04000
C218        C  0.00062603  0.03418816  0.53722570     0.04000
C219        C  0.03817385  0.99665664  0.53721687     0.04000
C220        C  0.96160092  0.11471550  0.64347785     0.81900
N221        N  0.96161678  0.07833864  0.60849500    -0.76400
C222        C  0.00071478  0.07371307  0.57658605     0.84400
N223        N  0.03990784  0.10554371  0.58097290    -0.76300
C224        C  0.04010380  0.14070018  0.61717649     0.84500
N225        N  0.00089763  0.14521061  0.64774650    -0.78000
C226        C  0.14462046  0.03561464  0.61758173     0.81900
N227        N  0.10957726  0.03561821  0.58124844    -0.76400
C228        C  0.07757434  0.99657166  0.57672567     0.84400
N229        N  0.08192462  0.95740716  0.60861222    -0.76300
C230        C  0.11817639  0.95719539  0.64373319     0.84500
N231        N  0.14883771  0.99634983  0.64813515    -0.78000
C232        C  0.11858392  0.85277090  0.53862022     0.81900
N233        N  0.14921350  0.84863048  0.49941715    -0.76400
C234        C  0.14483871  0.87933516  0.46028441     0.84400
N235        N  0.10967573  0.91553838  0.46045880    -0.76300
C236        C  0.07772638  0.91980411  0.49956217     0.84500
N237        N  0.08222167  0.88777116  0.53858611    -0.78000
C238        C  0.85667001  0.11451659  0.53888746     0.81900
N239        N  0.89171114  0.07818327  0.53882950    -0.76400
C240        C  0.92359900  0.07361962  0.49969967     0.84400
N241        N  0.91913509  0.10547821  0.46052623    -0.76300
C242        C  0.88287490  0.14058608  0.46036982     0.84500
N243        N  0.85232741  0.14502891  0.49960245    -0.78000
C244        C  0.88247129  0.03546764  0.35594368     0.81900
N245        N  0.91885560  0.03549379  0.39092076    -0.76400
C246        C  0.92347202  0.99644790  0.42290621     0.84400
N247        N  0.89164408  0.95724638  0.41859983    -0.76300
C248        C  0.85647005  0.95700756  0.38240770     0.84500
N249        N  0.85195813  0.99617162  0.35175986    -0.78000
C250        C  0.96174068  0.85265999  0.38173932     0.81900
N251        N  0.00093426  0.84856994  0.35108981    -0.76400
C252        C  0.04003169  0.87931614  0.35543021     0.84400
N253        N  0.03983225  0.91552142  0.39059791    -0.76300
C254        C  0.00073877  0.91975172  0.42257926     0.84500
N255        N  0.96174988  0.88766823  0.41810127    -0.78000
O256        O  0.25217248  0.17335445  0.67192958    -0.78400
O257        O  0.24991879  0.31901267  0.67164320    -0.78400
O258        O  0.14223410  0.20610464  0.73161192    -0.78400
O259        O  0.35968301  0.28657428  0.73188677    -0.78400
O260        O  0.17830584  0.24747708  0.67160203    -0.78500
O261        O  0.32386394  0.24495792  0.67187317    -0.78400
O262        O  0.29129938  0.35504129  0.73168292    -0.78400
O263        O  0.21058847  0.13761043  0.73197939    -0.78500
C264        C  0.22184320  0.14094347  0.68628655     1.11300
C265        C  0.28012415  0.35154247  0.68597498     1.11200
C266        C  0.14575804  0.21728479  0.68590827     1.11300
C267        C  0.35629741  0.27529505  0.68619408     1.11200
O268        O  0.35959935  0.20603156  0.76777146    -0.78400
O269        O  0.14217546  0.28678344  0.76717827    -0.78500
O270        O  0.24952541  0.17373342  0.82773510    -0.78400
O271        O  0.25203434  0.31930526  0.82743176    -0.78400
O272        O  0.21064380  0.35513908  0.76726376    -0.78500
O273        O  0.29112655  0.13767057  0.76786939    -0.78400
O274        O  0.32363101  0.24763998  0.82768017    -0.78400
O275        O  0.17794412  0.24540791  0.82738605    -0.78500
Co276      Co  0.30215314  0.19504194  0.72020527     1.51500
Co277      Co  0.19979998  0.29756197  0.71980657     1.51700
Co278      Co  0.19961522  0.19524992  0.77931523     1.51600
Co279      Co  0.30212244  0.29760106  0.77930928     1.51500
O280        O  0.25092520  0.24636077  0.74966245    -1.40300
C281        C  0.35611861  0.21733138  0.81344433     1.11200
C282        C  0.14549633  0.27565114  0.81290545     1.11300
C283        C  0.27982583  0.14121689  0.81354107     1.11200
C284        C  0.22179138  0.35177486  0.81299060     1.11200
O285        O  0.76826330  0.13775788  0.28980845    -0.78400
O286        O  0.76885754  0.35527262  0.20906287    -0.78400
O287        O  0.82898612  0.24505819  0.17685081    -0.78400
O288        O  0.82867788  0.24771368  0.32226472    -0.78400
O289        O  0.76916238  0.28673809  0.14074456    -0.78500
O290        O  0.76856323  0.20627996  0.35811118    -0.78400
O291        O  0.82880503  0.31930204  0.25062294    -0.78400
O292        O  0.82852440  0.17346473  0.24852277    -0.78500
C293        C  0.81399571  0.14101631  0.27872522     1.11300
C294        C  0.81453532  0.35181266  0.22035410     1.11200
C295        C  0.81483067  0.27540099  0.14434569     1.11300
C296        C  0.81427936  0.21745140  0.35472113     1.11200
O297        O  0.67289366  0.24566317  0.32213404    -0.78400
O298        O  0.67318465  0.24774997  0.17628399    -0.78500
O299        O  0.73270838  0.13790056  0.20913138    -0.78400
O300        O  0.73294763  0.35527358  0.28958037    -0.78400
O301        O  0.67300409  0.31941002  0.24788831    -0.78500
O302        O  0.67273638  0.17403085  0.25054617    -0.78400
O303        O  0.73300386  0.28696360  0.35811232    -0.78400
O304        O  0.73328321  0.20619769  0.14059354    -0.78500
Co305      Co  0.72099665  0.19547600  0.30060733     1.51500
Co306      Co  0.72139758  0.29775759  0.19802943     1.51700
Co307      Co  0.78051345  0.19519567  0.19831331     1.51600
Co308      Co  0.78049627  0.29777838  0.30060095     1.51500
O309        O  0.75085303  0.24655259  0.24938550    -1.40300
C310        C  0.68729441  0.27581660  0.35468824     1.11200
C311        C  0.68758365  0.21743370  0.14387813     1.11300
C312        C  0.68700923  0.14147810  0.22032651     1.11200
C313        C  0.68725959  0.35182322  0.27827781     1.11200
O314        O  0.32333328  0.66888857  0.24875982    -0.78400
O315        O  0.17768226  0.66911870  0.25094965    -0.78400
O316        O  0.29087395  0.72919247  0.35841365    -0.78400
O317        O  0.21036769  0.72870298  0.14095002    -0.78400
O318        O  0.24927795  0.66914845  0.32263029    -0.78500
O319        O  0.25177596  0.66873199  0.17710685    -0.78400
O320        O  0.14189421  0.72911706  0.20928491    -0.78400
O321        O  0.35933138  0.72899831  0.29006142    -0.78500
C322        C  0.35587448  0.68327645  0.27893397     1.11300
C323        C  0.14526688  0.68342941  0.22058852     1.11200
C324        C  0.27962143  0.68348885  0.35504883     1.11300
C325        C  0.22157710  0.68300177  0.14452590     1.11200
O326        O  0.29102216  0.76428247  0.14086739    -0.78400
O327        O  0.21032560  0.76506560  0.35827795    -0.78500
O328        O  0.32351521  0.82468919  0.25067769    -0.78400
O329        O  0.17795480  0.82494121  0.24812025    -0.78400
O330        O  0.14195324  0.76508145  0.28978466    -0.78500
O331        O  0.35936943  0.76449406  0.20936034    -0.78400
O332        O  0.24963934  0.82454000  0.17652527    -0.78400
O333        O  0.25188341  0.82496279  0.32224343    -0.78500
Co334      Co  0.30183355  0.71698601  0.19856352     1.51500
Co335      Co  0.19934426  0.71744865  0.30087712     1.51700
Co336      Co  0.30185871  0.77659373  0.30080960     1.51600
Co337      Co  0.19950064  0.77647208  0.19826507     1.51500
O338        O  0.25063057  0.74688236  0.24962915    -1.40300
C339        C  0.27989410  0.81001862  0.14411809     1.11200
C340        C  0.22161623  0.81074054  0.35475742     1.11300
C341        C  0.35598943  0.81023090  0.22046920     1.11200
C342        C  0.14546948  0.81075215  0.27844766     1.11200
C343        C  0.11309431  0.84604944  0.30177088    -0.11600
C344        C  0.08266450  0.86843163  0.32569552    -0.13100
C345        C  0.87130811  0.07799301  0.32616376    -0.11600
C346        C  0.84898849  0.10843990  0.30220181    -0.13100
C347        C  0.84940520  0.19405259  0.38721866    -0.11600
C348        C  0.87178788  0.17018586  0.41769629    -0.13100
C349        C  0.17449869  0.86840340  0.41763499    -0.11600
C350        C  0.19834169  0.84600747  0.38716854    -0.13100
C351        C  0.19839566  0.10850522  0.65113434    -0.11600
C352        C  0.17441355  0.07814336  0.62871571    -0.13100
C353        C  0.11330696  0.19398971  0.65069160    -0.11600
C354        C  0.08282084  0.17021428  0.62824465    -0.13100
C355        C  0.62980241  0.32295913  0.41772244    -0.11600
C356        C  0.65218624  0.29913318  0.38723286    -0.13100
C357        C  0.32723809  0.41442538  0.62830266    -0.11600
C358        C  0.30344652  0.38398157  0.65077836    -0.13100
C359        C  0.41883630  0.62566089  0.32607391    -0.11600
C360        C  0.38837314  0.64812845  0.30227800    -0.13100
C361        C  0.62949123  0.41448007  0.32568052    -0.11600
C362        C  0.65199130  0.38415208  0.30172250    -0.13100
C363        C  0.30309391  0.64829063  0.38744797    -0.11600
C364        C  0.32706076  0.62576911  0.41776239    -0.13100
C365        C  0.38870804  0.29872880  0.65100017    -0.11600
C366        C  0.41905321  0.32270175  0.62854815    -0.13100
C367        C  0.85017330  0.29872787  0.11203718    -0.11600
C368        C  0.87263812  0.32262533  0.08165190    -0.13100
C369        C  0.11297287  0.29910115  0.84795241    -0.11600
C370        C  0.08254292  0.32302159  0.87032516    -0.13100
C371        C  0.87221155  0.41466498  0.17319238    -0.11600
C372        C  0.84976238  0.38424420  0.19704930    -0.13100
C373        C  0.08255065  0.62573252  0.17319877    -0.11600
C374        C  0.11287726  0.64822212  0.19715781    -0.13100
C375        C  0.17446674  0.41473137  0.87046964    -0.11600
C376        C  0.19836481  0.38428499  0.84808163    -0.13100
C377        C  0.17452253  0.62527973  0.08161948    -0.11600
C378        C  0.19830237  0.64774891  0.11209205    -0.13100
C379        C  0.30337755  0.84501940  0.11156322    -0.11600
C380        C  0.32734633  0.86730650  0.08111104    -0.13100
C381        C  0.38850786  0.84530943  0.19705765    -0.11600
C382        C  0.41899092  0.86766217  0.17319269    -0.13100
C383        C  0.41897614  0.17010302  0.87108742    -0.11600
C384        C  0.38852896  0.19399897  0.84869451    -0.13100
C385        C  0.32703440  0.07841752  0.87128200    -0.11600
C386        C  0.30314773  0.10884540  0.84884358    -0.13100
C387        C  0.63006489  0.16997291  0.08105326    -0.11600
C388        C  0.65246983  0.19396484  0.11141606    -0.13100
C389        C  0.62932780  0.07857289  0.17323238    -0.11600
C390        C  0.65176239  0.10906045  0.19702379    -0.13100
C391        C  0.82700119  0.91425033  0.37138879    -0.11600
C392        C  0.80329631  0.88372316  0.34892820    -0.13100
C393        C  0.67441990  0.91474980  0.12909791    -0.11600
C394        C  0.69834120  0.88434898  0.15153896    -0.13100
C395        C  0.91888965  0.67026668  0.12801917    -0.11600
C396        C  0.88848866  0.69410997  0.15051330    -0.13100
C397        C  0.88890937  0.79868953  0.34833566    -0.11600
C398        C  0.91926223  0.82274540  0.37069631    -0.13100
C399        C  0.67451619  0.57807890  0.37060942    -0.11600
C400        C  0.69854148  0.60842358  0.34821340    -0.13100
C401        C  0.80337027  0.60869461  0.15059475    -0.11600
C402        C  0.82724741  0.57827736  0.12815830    -0.13100
C403        C  0.61323167  0.79893102  0.15117868    -0.11600
C404        C  0.58279501  0.82281972  0.12875681    -0.13100
C405        C  0.58274306  0.66990282  0.37072069    -0.11600
C406        C  0.61325502  0.69367144  0.34832321    -0.13100
C407        C  0.88826503  0.34565710  0.80215632    -0.11600
C408        C  0.91876621  0.36807783  0.82593723    -0.13100
C409        C  0.91902744  0.12594506  0.67314252    -0.11600
C410        C  0.88861824  0.14837425  0.69703273    -0.13100
C411        C  0.69847077  0.14740397  0.88705287    -0.11600
C412        C  0.67465082  0.12485188  0.91742187    -0.13100
C413        C  0.82726143  0.36746599  0.91810017    -0.11600
C414        C  0.80325638  0.34509927  0.88771602    -0.13100
C415        C  0.58257898  0.12534778  0.82589981    -0.11600
C416        C  0.61296612  0.14782479  0.80202587    -0.13100
C417        C  0.61301836  0.34558089  0.69736143    -0.11600
C418        C  0.58262574  0.36797012  0.67337669    -0.13100
C419        C  0.69820176  0.34556833  0.61198190    -0.11600
C420        C  0.67439839  0.36795147  0.58146438    -0.13100
C421        C  0.82704295  0.12572658  0.58150466    -0.11600
C422        C  0.80317200  0.14818566  0.61191534    -0.13100
C423        C  0.34982437  0.79887232  0.88693604    -0.11600
C424        C  0.37229717  0.82268243  0.91738845    -0.13100
C425        C  0.15242655  0.69393063  0.88734665    -0.11600
C426        C  0.13004151  0.67005719  0.91779784    -0.13100
C427        C  0.12919782  0.91450553  0.67332845    -0.10400
C428        C  0.15166573  0.88405975  0.69715534    -0.13100
C429        C  0.37171016  0.91482538  0.82591074    -0.11600
C430        C  0.34928658  0.88444938  0.80195303    -0.13100
C431        C  0.34966999  0.69415429  0.61183084    -0.11600
C432        C  0.37213610  0.67023642  0.58146031    -0.13100
C433        C  0.12967054  0.82297209  0.58115283    -0.11600
C434        C  0.15206232  0.79903457  0.61156724    -0.13100
C435        C  0.34940888  0.60867490  0.69684134    -0.11600
C436        C  0.37182096  0.57821944  0.67299230    -0.13100
C437        C  0.12960114  0.57847801  0.82575693    -0.11600
C438        C  0.15202367  0.60888378  0.80184460    -0.13100
loop_ 
_geom_bond_atom_site_label_1 
_geom_bond_atom_site_label_2 
_geom_bond_distance 
_geom_bond_site_symmetry_2 
_ccdc_geom_bond_type 
O1            C9   1.257       .  A
O1          Co21   1.961       .  S
O2           C10   1.257       .  A
O2          Co22   1.961       .  S
O3           C11   1.272       .  A
O3          Co23   2.032       .  S
O4           C12   1.272       .  A
O4          Co24   2.032       .  S
O5           C11   1.257       .  A
O5          Co22   1.961       .  S
O6           C12   1.257       .  A
O6          Co21   1.961       .  S
O7           C10   1.271       .  A
O7          Co24   2.031       .  S
O8            C9   1.271       .  A
O8          Co23   2.031       .  S
C9          C435   1.435       .  S
C10         C430   1.435       .  S
C11         C431   1.435       .  S
C12         C423   1.435       .  S
O13          C26   1.271       .  A
O13         Co21   2.031       .  S
O14          C27   1.271       .  A
O14         Co22   2.031       .  S
O15          C28   1.257       .  A
O15         Co23   1.961       .  S
O16          C29   1.257       .  A
O16         Co24   1.961       .  S
O17          C29   1.272       .  A
O17         Co22   2.032       .  S
O18          C28   1.272       .  A
O18         Co21   2.032       .  S
O19          C26   1.257       .  A
O19         Co24   1.961       .  S
O20          C27   1.257       .  A
O20         Co23   1.961       .  S
Co21         O25   2.109       .  S
Co22         O25   2.109       .  S
Co23         O25   2.109       .  S
Co24         O25   2.109       .  S
C26         C425   1.435       .  S
C27         C434   1.435       .  S
C28         C438   1.435       .  S
C29         C428   1.435       .  S
O30          C38   1.257       .  A
O30         Co50   1.961       .  S
O31          C39   1.257       .  A
O31         Co51   1.962       .  S
O32          C40   1.271       .  A
O32         Co52   2.032       .  S
O33          C41   1.271       .  A
O33         Co53   2.032       .  S
O34          C40   1.257       .  A
O34         Co51   1.961       .  S
O35          C41   1.257       .  A
O35         Co50   1.961       .  S
O36          C39   1.271       .  A
O36         Co53   2.031       .  S
O37          C38   1.271       .  A
O37         Co52   2.031       .  S
C38         C419   1.435       .  S
C39         C414   1.435       .  S
C40         C417   1.435       .  S
C41         C407   1.435       .  S
O42          C55   1.271       .  A
O42         Co50   2.031       .  S
O43          C56   1.271       .  A
O43         Co51   2.031       .  S
O44          C57   1.257       .  A
O44         Co52   1.961       .  S
O45          C58   1.257       .  A
O45         Co53   1.961       .  S
O46          C58   1.272       .  A
O46         Co51   2.032       .  S
O47          C57   1.272       .  A
O47         Co50   2.032       .  S
O48          C55   1.257       .  A
O48         Co53   1.961       .  S
O49          C56   1.257       .  A
O49         Co52   1.961       .  S
Co50         O54   2.109       .  S
Co51         O54   2.109       .  S
Co52         O54   2.109       .  S
Co53         O54   2.109       .  S
C55         C410   1.435       .  S
C56         C416   1.435       .  S
C57         C422   1.435       .  S
C58         C411   1.435       .  S
O59          C67   1.257       .  A
O59         Co79   1.961       .  S
O60          C68   1.257       .  A
O60         Co80   1.961       .  S
O61          C69   1.271       .  A
O61         Co81   2.032       .  S
O62          C70   1.271       .  A
O62         Co82   2.031       .  S
O63          C69   1.257       .  A
O63         Co80   1.961       .  S
O64          C70   1.257       .  A
O64         Co79   1.961       .  S
O65          C68   1.272       .  A
O65         Co82   2.032       .  S
O66          C67   1.271       .  A
O66         Co81   2.032       .  S
C67         C403   1.435       .  S
C68         C396   1.435       .  S
C69         C394   1.435       .  S
C70         C401   1.435       .  S
O71          C84   1.272       .  A
O71         Co79   2.032       .  S
O72          C85   1.271       .  A
O72         Co80   2.032       .  S
O73          C86   1.257       .  A
O73         Co81   1.961       .  S
O74          C87   1.257       .  A
O74         Co82   1.962       .  S
O75          C87   1.271       .  A
O75         Co80   2.031       .  S
O76          C86   1.271       .  A
O76         Co79   2.031       .  S
O77          C84   1.257       .  A
O77         Co82   1.962       .  S
O78          C85   1.257       .  A
O78         Co81   1.960       .  S
Co79         O83   2.109       .  S
Co80         O83   2.109       .  S
Co81         O83   2.109       .  S
Co82         O83   2.109       .  S
C84         C400   1.436       .  S
C85         C392   1.435       .  S
C86         C406   1.435       .  S
C87         C397   1.436       .  S
C88          C89   1.431   1_564  A
C88          C93   1.431       .  A
C88          C96   1.503       .  S
C89          C90   1.431       .  A
C89         C102   1.503       .  S
C90          C91   1.431   1_545  A
C90         C114   1.503       .  S
C91          C92   1.430       .  A
C91         C110   1.504       .  S
C92          C93   1.431   1_556  A
C92         C126   1.503       .  S
C93         C122   1.503       .  S
C94         C389   1.431       .  S
C94          N95   1.360       .  A
C94          N99   1.345   1_545  A
N95          C96   1.366   1_545  A
C96          N97   1.366       .  A
N97          C98   1.360       .  A
C98         C393   1.431       .  S
C98          N99   1.345       .  A
C100        C387   1.431       .  S
C100        N101   1.360       .  A
C100        N105   1.345   1_554  A
N101        C102   1.366   1_554  A
C102        N103   1.366       .  A
N103        C104   1.360       .  A
C104        C412   1.431       .  S
C104        N105   1.345       .  A
C106        C385   1.431       .  S
C106        N107   1.345   1_545  A
C106        N111   1.360       .  A
N107        C108   1.345       .  A
C108        C429   1.431       .  S
C108        N109   1.360       .  A
N109        C110   1.366       .  A
C110        N111   1.366   1_565  A
C112        C383   1.431       .  S
C112        N113   1.360       .  A
C112        N117   1.345       .  A
N113        C114   1.366       .  A
C114        N115   1.366       .  A
N115        C116   1.360       .  A
C116        C415   1.431       .  S
C116        N117   1.345       .  A
C118        C404   1.431       .  S
C118        N119   1.345       .  A
C118        N123   1.360       .  A
N119        C120   1.345       .  A
C120        C382   1.431       .  S
C120        N121   1.360       .  A
N121        C122   1.366       .  A
C122        N123   1.366       .  A
C124        C380   1.431       .  S
C124        N125   1.360       .  A
C124        N129   1.345   1_554  A
N125        C126   1.366   1_554  A
C126        N127   1.366       .  A
N127        C128   1.360       .  A
C128        C424   1.431       .  S
C128        N129   1.345       .  A
C130        C131   1.430       .  A
C130        C135   1.430       .  A
C130        C144   1.504       .  S
C131        C132   1.430   1_455  A
C131        C162   1.503       .  S
C132        C133   1.430   1_556  A
C132        C168   1.504       .  S
C133        C134   1.431   1_655  A
C133        C156   1.503       .  S
C134        C135   1.431   1_554  A
C134        C150   1.503       .  S
C135        C140   1.503       .  S
C136        C377   1.431       .  S
C136        N137   1.345   1_554  A
C136        N141   1.360       .  A
N137        C138   1.345       .  A
C138        C426   1.431       .  S
C138        N139   1.360       .  A
N139        C140   1.366       .  A
C140        N141   1.366   1_556  A
C142        C437   1.431       .  S
C142        N143   1.360       .  A
C142        N147   1.345       .  A
N143        C144   1.366       .  A
C144        N145   1.366       .  A
N145        C146   1.360       .  A
C146        C375   1.431       .  S
C146        N147   1.345       .  A
C148        C373   1.431       .  S
C148        N149   1.360       .  A
C148        N153   1.345       .  A
N149        C150   1.366       .  A
C150        N151   1.366   1_455  A
N151        C152   1.360       .  A
C152        C395   1.431       .  S
C152        N153   1.345   1_655  A
C154        C402   1.431       .  S
C154        N155   1.360       .  A
C154        N159   1.345       .  A
N155        C156   1.366       .  A
C156        N157   1.366       .  A
N157        C158   1.360       .  A
C158        C371   1.431       .  S
C158        N159   1.345       .  A
C160        C408   1.431       .  S
C160        N161   1.360       .  A
C160        N165   1.345   1_655  A
N161        C162   1.366   1_655  A
C162        N163   1.366       .  A
N163        C164   1.360       .  A
C164        C370   1.431       .  S
C164        N165   1.345       .  A
C166        C368   1.431       .  S
C166        N167   1.360       .  A
C166        N171   1.345   1_554  A
N167        C168   1.366   1_554  A
C168        N169   1.366       .  A
N169        C170   1.360       .  A
C170        C413   1.431       .  S
C170        N171   1.345       .  A
C172        C173   1.431       .  A
C172        C177   1.431       .  A
C172        C188   1.504       .  S
C173        C174   1.431       .  A
C173        C206   1.503       .  S
C174        C175   1.431       .  A
C174        C180   1.504       .  S
C175        C176   1.431       .  A
C175        C210   1.503       .  S
C176        C177   1.431       .  A
C176        C192   1.504       .  S
C177        C200   1.503       .  S
C178        C418   1.431       .  S
C178        N179   1.360       .  A
C178        N183   1.345       .  A
N179        C180   1.366       .  A
C180        N181   1.366       .  A
N181        C182   1.360       .  A
C182        C366   1.431       .  S
C182        N183   1.345       .  A
C184        C364   1.431       .  S
C184        N185   1.345       .  A
C184        N189   1.360       .  A
N185        C186   1.345       .  A
C186        C432   1.431       .  S
C186        N187   1.360       .  A
N187        C188   1.366       .  A
C188        N189   1.366       .  A
C190        C399   1.431       .  S
C190        N191   1.360       .  A
C190        N195   1.345       .  A
N191        C192   1.366       .  A
C192        N193   1.366       .  A
N193        C194   1.360       .  A
C194        C361   1.431       .  S
C194        N195   1.345       .  A
C196        C359   1.431       .  S
C196        N197   1.345       .  A
C196        N201   1.360       .  A
N197        C198   1.345       .  A
C198        C405   1.431       .  S
C198        N199   1.360       .  A
N199        C200   1.366       .  A
C200        N201   1.366       .  A
C202        C436   1.431       .  S
C202        N203   1.345       .  A
C202        N207   1.360       .  A
N203        C204   1.345       .  A
C204        C357   1.431       .  S
C204        N205   1.360       .  A
N205        C206   1.366       .  A
C206        N207   1.366       .  A
C208        C420   1.431       .  S
C208        N209   1.360       .  A
C208        N213   1.345       .  A
N209        C210   1.366       .  A
C210        N211   1.366       .  A
N211        C212   1.360       .  A
C212        C355   1.431       .  S
C212        N213   1.345       .  A
C214        C215   1.430       .  A
C214        C219   1.430       .  A
C214        C236   1.503       .  S
C215        C216   1.430   1_455  A
C215        C254   1.504       .  S
C216        C217   1.430   1_565  A
C216        C246   1.503       .  S
C217        C218   1.430   1_655  A
C217        C240   1.503       .  S
C218        C219   1.430   1_545  A
C218        C222   1.503       .  S
C219        C228   1.503       .  S
C220        C409   1.431       .  S
C220        N221   1.360       .  A
C220        N225   1.345   1_655  A
N221        C222   1.366   1_655  A
C222        N223   1.366       .  A
N223        C224   1.360       .  A
C224        C354   1.431       .  S
C224        N225   1.345       .  A
C226        C352   1.431       .  S
C226        N227   1.360       .  A
C226        N231   1.345   1_545  A
N227        C228   1.366   1_545  A
C228        N229   1.366       .  A
N229        C230   1.360       .  A
C230        C427   1.431       .  S
C230        N231   1.345       .  A
C232        C433   1.431       .  S
C232        N233   1.345       .  A
C232        N237   1.360       .  A
N233        C234   1.345       .  A
C234        C349   1.431       .  S
C234        N235   1.360       .  A
N235        C236   1.366       .  A
C236        N237   1.366       .  A
C238        C421   1.431       .  S
C238        N239   1.360       .  A
C238        N243   1.345       .  A
N239        C240   1.366       .  A
C240        N241   1.366       .  A
N241        C242   1.360       .  A
C242        C348   1.431       .  S
C242        N243   1.345       .  A
C244        C345   1.431       .  S
C244        N245   1.360       .  A
C244        N249   1.345   1_545  A
N245        C246   1.366   1_545  A
C246        N247   1.366       .  A
N247        C248   1.360       .  A
C248        C391   1.430       .  S
C248        N249   1.345       .  A
C250        C398   1.431       .  S
C250        N251   1.345   1_655  A
C250        N255   1.360       .  A
N251        C252   1.345       .  A
C252        C344   1.431       .  S
C252        N253   1.360       .  A
N253        C254   1.366       .  A
C254        N255   1.366   1_455  A
O256        C264   1.257       .  A
O256       Co276   1.961       .  S
O257        C265   1.257       .  A
O257       Co277   1.961       .  S
O258        C266   1.271       .  A
O258       Co278   2.032       .  S
O259        C267   1.271       .  A
O259       Co279   2.032       .  S
O260        C266   1.257       .  A
O260       Co277   1.961       .  S
O261        C267   1.257       .  A
O261       Co276   1.962       .  S
O262        C265   1.271       .  A
O262       Co279   2.032       .  S
O263        C264   1.271       .  A
O263       Co278   2.031       .  S
C264        C351   1.435       .  S
C265        C358   1.435       .  S
C266        C353   1.435       .  S
C267        C365   1.436       .  S
O268        C281   1.271       .  A
O268       Co276   2.031       .  S
O269        C282   1.271       .  A
O269       Co277   2.031       .  S
O270        C283   1.257       .  A
O270       Co278   1.961       .  S
O271        C284   1.257       .  A
O271       Co279   1.961       .  S
O272        C284   1.271       .  A
O272       Co277   2.032       .  S
O273        C283   1.271       .  A
O273       Co276   2.032       .  S
O274        C281   1.257       .  A
O274       Co279   1.961       .  S
O275        C282   1.257       .  A
O275       Co278   1.961       .  S
Co276       O280   2.109       .  S
Co277       O280   2.109       .  S
Co278       O280   2.109       .  S
Co279       O280   2.109       .  S
C281        C384   1.435       .  S
C282        C369   1.435       .  S
C283        C386   1.435       .  S
C284        C376   1.435       .  S
O285        C293   1.271       .  A
O285       Co305   2.031       .  S
O286        C294   1.271       .  A
O286       Co306   2.031       .  S
O287        C295   1.257       .  A
O287       Co307   1.961       .  S
O288        C296   1.257       .  A
O288       Co308   1.961       .  S
O289        C295   1.272       .  A
O289       Co306   2.032       .  S
O290        C296   1.272       .  A
O290       Co305   2.032       .  S
O291        C294   1.257       .  A
O291       Co308   1.961       .  S
O292        C293   1.257       .  A
O292       Co307   1.961       .  S
C293        C346   1.435       .  S
C294        C372   1.435       .  S
C295        C367   1.436       .  S
C296        C347   1.435       .  S
O297        C310   1.257       .  A
O297       Co305   1.961       .  S
O298        C311   1.257       .  A
O298       Co306   1.961       .  S
O299        C312   1.272       .  A
O299       Co307   2.032       .  S
O300        C313   1.272       .  A
O300       Co308   2.032       .  S
O301        C313   1.257       .  A
O301       Co306   1.961       .  S
O302        C312   1.257       .  A
O302       Co305   1.961       .  S
O303        C310   1.271       .  A
O303       Co308   2.031       .  S
O304        C311   1.271       .  A
O304       Co307   2.031       .  S
Co305       O309   2.109       .  S
Co306       O309   2.109       .  S
Co307       O309   2.109       .  S
Co308       O309   2.109       .  S
C310        C356   1.435       .  S
C311        C388   1.435       .  S
C312        C390   1.435       .  S
C313        C362   1.436       .  S
O314        C322   1.257       .  A
O314       Co334   1.961       .  S
O315        C323   1.257       .  A
O315       Co335   1.961       .  S
O316        C324   1.272       .  A
O316       Co336   2.032       .  S
O317        C325   1.271       .  A
O317       Co337   2.032       .  S
O318        C324   1.257       .  A
O318       Co335   1.961       .  S
O319        C325   1.257       .  A
O319       Co334   1.961       .  S
O320        C323   1.271       .  A
O320       Co337   2.031       .  S
O321        C322   1.271       .  A
O321       Co336   2.031       .  S
C322        C360   1.435       .  S
C323        C374   1.435       .  S
C324        C363   1.436       .  S
C325        C378   1.435       .  S
O326        C339   1.271       .  A
O326       Co334   2.031       .  S
O327        C340   1.271       .  A
O327       Co335   2.031       .  S
O328        C341   1.257       .  A
O328       Co336   1.961       .  S
O329        C342   1.257       .  A
O329       Co337   1.962       .  S
O330        C342   1.271       .  A
O330       Co335   2.032       .  S
O331        C341   1.271       .  A
O331       Co334   2.032       .  S
O332        C339   1.257       .  A
O332       Co337   1.961       .  S
O333        C340   1.257       .  A
O333       Co336   1.961       .  S
Co334       O338   2.109       .  S
Co335       O338   2.109       .  S
Co336       O338   2.109       .  S
Co337       O338   2.109       .  S
C339        C379   1.435       .  S
C340        C350   1.435       .  S
C341        C381   1.435       .  S
C342        C343   1.436       .  S
C343        C344   1.205       .  T
C345        C346   1.205       .  T
C347        C348   1.205       .  T
C349        C350   1.205       .  T
C351        C352   1.205       .  T
C353        C354   1.205       .  T
C355        C356   1.205       .  T
C357        C358   1.205       .  T
C359        C360   1.205       .  T
C361        C362   1.205       .  T
C363        C364   1.205       .  T
C365        C366   1.205       .  T
C367        C368   1.205       .  T
C369        C370   1.205       .  T
C371        C372   1.205       .  T
C373        C374   1.205       .  T
C375        C376   1.205       .  T
C377        C378   1.205       .  T
C379        C380   1.205       .  T
C381        C382   1.205       .  T
C383        C384   1.205       .  T
C385        C386   1.205       .  T
C387        C388   1.205       .  T
C389        C390   1.205       .  T
C391        C392   1.205       .  T
C393        C394   1.205       .  T
C395        C396   1.205       .  T
C397        C398   1.205       .  T
C399        C400   1.205       .  T
C401        C402   1.205       .  T
C403        C404   1.205       .  T
C405        C406   1.205       .  T
C407        C408   1.205       .  T
C409        C410   1.205       .  T
C411        C412   1.205       .  T
C413        C414   1.205       .  T
C415        C416   1.205       .  T
C417        C418   1.205       .  T
C419        C420   1.205       .  T
C421        C422   1.205       .  T
C423        C424   1.205       .  T
C425        C426   1.205       .  T
C427        C428   1.205       .  T
C429        C430   1.205       .  T
C431        C432   1.205       .  T
C433        C434   1.205       .  T
C435        C436   1.205       .  T
C437        C438   1.205       .  T
