geometry optimzed in LAMMPS
_audit_creation_date              2020-11-30 
_audit_creation_method            'lammps2cif' 
_symmetry_space_group_name_H-M    'P1' 
_symmetry_Int_Tables_number       1 
_symmetry_cell_setting            triclinic 
loop_ 
_symmetry_equiv_pos_as_xyz 
  x,y,z 
_cell_length_a                    51.62154952304836 
_cell_length_b                    51.170637638404905 
_cell_length_c                    50.65271042406536 
_cell_angle_alpha                 89.85646752466702 
_cell_angle_beta                  90.6621333577666 
_cell_angle_gamma                 89.61590804174325 
loop_ 
_atom_site_label 
_atom_site_type_symbol 
_atom_site_fract_x 
_atom_site_fract_y 
_atom_site_fract_z 
_atom_site_charge 
C1          C  0.66309782  0.70091110  0.92981037     0.03370
C2          C  0.67596650  0.71638962  0.91115177    -0.12780
C3          C  0.69709549  0.70609156  0.89701283     0.00870
C4          C  0.70593875  0.68050354  0.90283464    -0.11310
C5          C  0.69374247  0.66507210  0.92223253     0.03360
C6          C  0.67206632  0.67548975  0.93477638    -0.10730
H7          H  0.67038161  0.73664732  0.90838382     0.08950
H8          H  0.72317258  0.67326031  0.89325545     0.06480
H9          H  0.66324046  0.66458516  0.95056178     0.06330
C10         C  0.86151581  0.71901338  0.72505116     0.03370
C11         C  0.86921978  0.73175182  0.70180208    -0.12780
C12         C  0.89026481  0.72213049  0.68712231     0.00870
C13         C  0.90129054  0.69794113  0.69460543    -0.11310
C14         C  0.89207416  0.68392130  0.71626244     0.03360
C15         C  0.87251281  0.69477772  0.73181884    -0.10730
H16         H  0.85924085  0.74939725  0.69590173     0.08950
H17         H  0.91799049  0.69034783  0.68426573     0.06480
H18         H  0.86671946  0.68498779  0.74979253     0.06330
C19         C  0.68971184  0.92490403  0.70899264     0.03370
C20         C  0.70410219  0.90418433  0.71989013    -0.12780
C21         C  0.69233802  0.88663052  0.73736751     0.00870
C22         C  0.66594727  0.89017830  0.74358688    -0.11310
C23         C  0.65137004  0.91081605  0.73201943     0.03360
C24         C  0.66364001  0.92769611  0.71460982    -0.10730
H25         H  0.72444287  0.90204514  0.71521425     0.08950
H26         H  0.65719810  0.87772879  0.75826596     0.06480
H27         H  0.65330442  0.94437604  0.70641251     0.06330
C28         C  0.75508347  0.77328014  0.82536924     0.02520
C29         C  0.77817420  0.76306183  0.81443040     0.02520
C30         C  0.78804671  0.77376826  0.79083920     0.02520
C31         C  0.77857082  0.79798099  0.78115750     0.02520
C32         C  0.75573269  0.80879432  0.79217387     0.02520
C33         C  0.74392432  0.79637463  0.81416193     0.02520
C34         C  0.38793727  0.38174604  0.95474103     0.03370
C35         C  0.37751032  0.36769522  0.93344778    -0.12780
C36         C  0.35993518  0.37998276  0.91593625     0.00870
C37         C  0.35349683  0.40646461  0.91965255    -0.11310
C38         C  0.36432696  0.42053726  0.94088952     0.03360
C39         C  0.38120157  0.40777688  0.95837560    -0.10730
H40         H  0.38269275  0.34732323  0.93077694     0.08950
H41         H  0.33928731  0.41572731  0.90672261     0.06480
H42         H  0.38868711  0.41789787  0.97559164     0.06330
C43         C  0.88060963  0.36574296  0.39563604     0.03370
C44         C  0.89539934  0.38652839  0.38553406    -0.12780
C45         C  0.91438759  0.39858561  0.40147367     0.00870
C46         C  0.91761335  0.39045091  0.42770824    -0.11310
C47         C  0.90171272  0.37139694  0.43881327     0.03360
C48         C  0.88317277  0.35902611  0.42250993    -0.10730
H49         H  0.89253566  0.39268028  0.36525791     0.08950
H50         H  0.93312811  0.39881610  0.43946195     0.06480
H51         H  0.87157030  0.34330413  0.43034795     0.06330
C52         C  0.39669127  0.93104022  0.38939096     0.03370
C53         C  0.38946278  0.93648465  0.41523198    -0.12780
C54         C  0.36814988  0.92425920  0.42637354     0.00870
C55         C  0.35478704  0.90509199  0.41210474    -0.11310
C56         C  0.36221018  0.89892646  0.38618907     0.03360
C57         C  0.38329038  0.91197304  0.37487709    -0.10730
H58         H  0.39904742  0.95209125  0.42593858     0.08950
H59         H  0.33807906  0.89575315  0.42068846     0.06480
H60         H  0.38907464  0.90757826  0.35487740     0.06330
C61         C  0.85975849  0.91489226  0.43721531     0.03370
C62         C  0.88443903  0.90501141  0.44349823    -0.12780
C63         C  0.89201797  0.88028991  0.43542844     0.00870
C64         C  0.87771376  0.86764196  0.41571058    -0.11310
C65         C  0.85362115  0.87800571  0.40654072     0.03360
C66         C  0.84413388  0.90107225  0.41881501    -0.10730
H67         H  0.89649610  0.91504122  0.45789497     0.08950
H68         H  0.88526015  0.84936780  0.40823544     0.06480
H69         H  0.82441780  0.90727423  0.41527402     0.06330
C70         C  0.84648536  0.86709841  0.72270216     0.03370
C71         C  0.86747203  0.85893987  0.70714803    -0.12780
C72         C  0.88124289  0.87728619  0.69208940     0.00870
C73         C  0.87438722  0.90370965  0.69332557    -0.11310
C74         C  0.85279440  0.91201730  0.70759702     0.03360
C75         C  0.83924289  0.89360035  0.72272409    -0.10730
H76         H  0.87265469  0.83842243  0.70630065     0.08950
H77         H  0.88496840  0.91764749  0.68160389     0.06480
H78         H  0.82222270  0.89964897  0.73352211     0.06330
C79         C  0.87962180  0.43719826  0.87165049     0.03370
C80         C  0.87619625  0.44228403  0.89841408    -0.12780
C81         C  0.85556947  0.43127817  0.91198514     0.00870
C82         C  0.83949139  0.41310683  0.89913794    -0.11310
C83         C  0.84411768  0.40636286  0.87266717     0.03360
C84         C  0.86412864  0.41860886  0.85894111    -0.10730
H85         H  0.88822216  0.45672316  0.90815430     0.08950
H86         H  0.82315883  0.40482708  0.90939820     0.06480
H87         H  0.86737806  0.41395094  0.83837021     0.06330
C88         C  0.88191977  0.66080361  0.87010356     0.03370
C89         C  0.86481802  0.67802063  0.85704772    -0.12780
C90         C  0.84177578  0.68599989  0.86928887     0.00870
C91         C  0.83568644  0.67605940  0.89440504    -0.11310
C92         C  0.85266922  0.65831562  0.90704337     0.03360
C93         C  0.87613199  0.65181912  0.89530672    -0.10730
H94         H  0.86900692  0.68452713  0.83717834     0.08950
H95         H  0.81748674  0.68127983  0.90351461     0.06480
H96         H  0.88882668  0.63753617  0.90477188     0.06330
C97         C  0.19627214  0.86213976  0.46167200     0.03370
C98         C  0.20459479  0.88737259  0.46740243    -0.12780
C99         C  0.23032994  0.89508089  0.46301463     0.00870
C100        C  0.24646857  0.87762082  0.44907647    -0.11310
C101        C  0.23659686  0.85404198  0.43887733     0.03360
C102        C  0.21179131  0.84579034  0.44626250    -0.10730
H103        H  0.19092563  0.90038879  0.47676952     0.08950
H104        H  0.26641174  0.88241044  0.44529138     0.06480
H105        H  0.20439523  0.82714648  0.43957615     0.06330
C106        C  0.19259129  0.86846847  0.68462341     0.03370
C107        C  0.20168731  0.89339736  0.67849288    -0.12780
C108        C  0.22718603  0.90079522  0.68476851     0.00870
C109        C  0.24325936  0.88331703  0.69872677    -0.11310
C110        C  0.23362084  0.85910960  0.70683135     0.03360
C111        C  0.20809638  0.85202033  0.70039857    -0.10730
H112        H  0.18955053  0.90640780  0.66670799     0.08950
H113        H  0.26318236  0.88841402  0.70313461     0.06480
H114        H  0.20054306  0.83364248  0.70745342     0.06330
O115        O  0.98255439  0.76008332  0.61960303    -0.75050
O116        O  0.95489545  0.78660290  0.59602099    -0.53960
C117        C  0.95979132  0.76868318  0.61326367     0.78670
O118        O  0.07762519  0.85115524  0.62926078    -0.59650
O119        O  0.10580120  0.82905741  0.60319968    -0.52680
C120        C  0.10061518  0.84346392  0.62322563     0.70690
O121        O  0.99027786  0.85158325  0.63096704    -0.74210
O122        O  0.95942485  0.83997493  0.60080974    -0.54780
C123        C  0.96644370  0.84899539  0.62347367     0.76690
O124        O  0.07064647  0.75365042  0.62354283    -0.59360
O125        O  0.10251117  0.77338419  0.60001652    -0.52480
C126        C  0.09466007  0.75784659  0.61814944     0.73280
Zr127      Zr  0.02761305  0.76828757  0.60785564     2.54710
O128        O  0.02440675  0.76684070  0.65570704    -0.79920
O129        O  0.02507820  0.72094992  0.60412098    -0.93340
Zr130      Zr  0.03349114  0.84630643  0.61137566     2.64680
O131        O  0.04006912  0.85128095  0.65862520    -0.98290
O132        O  0.03242146  0.89375320  0.60783515    -0.80360
O133        O  0.00613900  0.80938701  0.60898508    -0.83710
O134        O  0.05486093  0.80514800  0.61064432    -2.18420
O135        O  0.07267061  0.76175921  0.51438975    -0.67100
O136        O  0.10431953  0.77878917  0.54075532    -0.51670
C137        C  0.09656511  0.76643045  0.52020001     0.71670
O138        O  0.99536911  0.85171959  0.50773747    -0.60010
O139        O  0.96196516  0.84029804  0.53388357    -0.51990
C140        C  0.97094679  0.84897850  0.51184468     0.73470
O141        O  0.08039388  0.85173114  0.51541752    -0.71410
O142        O  0.10752506  0.82913276  0.54265845    -0.50080
C143        C  0.10317099  0.84304945  0.52191341     0.74850
O144        O  0.98571837  0.77060403  0.51137838    -0.66740
O145        O  0.95583480  0.79018189  0.53782490    -0.53930
C146        C  0.96243777  0.77721865  0.51735544     0.73230
Zr147      Zr  0.02923858  0.77166603  0.53038281     2.77540
O148        O  0.02762476  0.76305819  0.48308581    -0.97490
O149        O  0.02491006  0.72473118  0.53671011    -0.78310
Zr150      Zr  0.03592820  0.85018255  0.53376465     2.70070
O151        O  0.04078731  0.87631489  0.49419275    -0.79550
O152        O  0.03449110  0.89519275  0.54916419    -0.98640
Zr153      Zr  0.98227424  0.81378110  0.56877891     2.21500
Zr154      Zr  0.08032372  0.80464715  0.57186754     2.11130
O155        O  0.05634656  0.80871475  0.53164760    -2.47320
O156        O  0.00862814  0.81315141  0.53067570    -0.79350
O157        O  0.05392787  0.76665747  0.56974917    -0.71540
O158        O  0.00887398  0.85181455  0.57158935    -2.32500
O159        O  0.00288260  0.77183737  0.56816419    -2.28710
O160        O  0.06050592  0.84680980  0.57350403    -0.73300
H161        H  0.06552303  0.80342154  0.62632090     0.78700
H162        H  0.99834362  0.86748887  0.57193161     0.79780
H163        H  0.06676120  0.80810170  0.51601409     0.82010
H164        H  0.99030664  0.75799839  0.56689601     0.79620
H165        H  0.01523759  0.89885481  0.61469568     0.42650
H166        H  0.05088822  0.90291209  0.54298398     0.41620
H167        H  0.04117915  0.86331258  0.47982997     0.41300
H168        H  0.03920876  0.77620163  0.47516405     0.39230
H169        H  0.04271281  0.71852703  0.54083752     0.42360
H170        H  0.01014946  0.71784287  0.59212240     0.37150
H171        H  0.02809268  0.78494259  0.66141975     0.43270
H172        H  0.02996841  0.83704419  0.66670719     0.39680
H173        H  0.03670989  0.74613009  0.48076097     0.44600
H174        H  0.01908245  0.71506937  0.62164433     0.43320
H175        H  0.03091016  0.86769071  0.66312918     0.43460
H176        H  0.02084571  0.90367094  0.53816133     0.43820
C177        C  0.37002283  0.70034480  0.89635090     0.03370
C178        C  0.35965110  0.67835119  0.90916481    -0.12780
C179        C  0.37306519  0.66643868  0.93025619     0.00870
C180        C  0.39778475  0.67510749  0.93718572    -0.11310
C181        C  0.40799511  0.69760602  0.92566308     0.03360
C182        C  0.39395211  0.71038812  0.90534961    -0.10730
H183        H  0.34025280  0.67187882  0.90417306     0.08950
H184        H  0.40764232  0.66634763  0.95408724     0.06480
H185        H  0.40070930  0.72898803  0.89796526     0.06330
C186        C  0.37452724  0.87293685  0.73971578     0.03370
C187        C  0.39713647  0.88357336  0.75109620    -0.12780
C188        C  0.41081759  0.90303964  0.73757834     0.00870
C189        C  0.40297225  0.91037995  0.71218403    -0.11310
C190        C  0.37991700  0.90097446  0.70120084     0.03360
C191        C  0.36582150  0.88195917  0.71482714    -0.10730
H192        H  0.40306616  0.87798992  0.77092287     0.08950
H193        H  0.41284981  0.92634738  0.70247205     0.06480
H194        H  0.34734634  0.87547565  0.70695727     0.06330
C195        C  0.27485076  0.76586215  0.78664462     0.02520
C196        C  0.28764604  0.78878377  0.77847419     0.02520
C197        C  0.31053925  0.79645886  0.79170969     0.02520
C198        C  0.31703634  0.78585613  0.81684872     0.02520
C199        C  0.30383609  0.76336328  0.82611306     0.02520
C200        C  0.28132889  0.75463057  0.81175963     0.02520
C201        C  0.20370729  0.70840246  0.71789003     0.03370
C202        C  0.19413536  0.71786980  0.69352092    -0.12780
C203        C  0.17351141  0.70532531  0.68064431     0.00870
C204        C  0.16442115  0.68166550  0.69058849    -0.11310
C205        C  0.17376095  0.67165276  0.71462318     0.03360
C206        C  0.19344316  0.68508623  0.72834134    -0.10730
H207        H  0.20125319  0.73608937  0.68561323     0.08950
H208        H  0.14752407  0.67283199  0.68140895     0.06480
H209        H  0.19945326  0.67845485  0.74781559     0.06330
O210        O  0.98401164  0.59873738  0.83292477    -0.75050
O211        O  0.95435179  0.57500669  0.81026644    -0.53960
C212        C  0.96047567  0.59342402  0.82617659     0.78670
O213        O  0.07142771  0.60582436  0.74090777    -0.59650
O214        O  0.10143334  0.57841003  0.75948428    -0.52680
C215        C  0.09498663  0.59961315  0.74735201     0.70690
O216        O  0.98516150  0.60675891  0.74250487    -0.74210
O217        O  0.95413019  0.57914715  0.75755400    -0.54780
C218        C  0.96151706  0.60081861  0.74728113     0.76690
O219        O  0.07174847  0.59794817  0.83469429    -0.59360
O220        O  0.10037603  0.57184600  0.81321004    -0.52480
C221        C  0.09493225  0.59078898  0.82867118     0.73280
Zr222      Zr  0.02773570  0.58259904  0.82429465     2.54710
O223        O  0.02733954  0.62939890  0.83272455    -0.79920
O224        O  0.02782882  0.57378811  0.87155248    -0.93340
Zr225      Zr  0.02788134  0.58617861  0.74434120     2.64680
O226        O  0.02158386  0.63048272  0.72774674    -0.98290
O227        O  0.02840132  0.57735121  0.69717301    -0.80360
O228        O  0.00382912  0.58476659  0.78404534    -0.83710
O229        O  0.05149606  0.58561382  0.78477201    -2.18420
O230        O  0.07227828  0.48960847  0.83068393    -0.67100
O231        O  0.10060977  0.51524233  0.80845918    -0.51670
C232        C  0.09537542  0.49608640  0.82385360     0.71670
O233        O  0.98422792  0.48885727  0.73951543    -0.60010
O234        O  0.95352606  0.51680040  0.75509257    -0.51990
C235        C  0.96040058  0.49528882  0.74420786     0.73470
O236        O  0.07266992  0.49154351  0.73676703    -0.71410
O237        O  0.10199647  0.51844789  0.75616259    -0.50080
C238        C  0.09616562  0.49764877  0.74368475     0.74850
O239        O  0.98477842  0.49020734  0.83040494    -0.66740
O240        O  0.95477122  0.51536358  0.80865702    -0.53930
C241        C  0.96134276  0.49623446  0.82393550     0.73230
Zr242      Zr  0.02811882  0.50530284  0.82029858     2.77540
O243        O  0.02575019  0.45821769  0.81449349    -0.97490
O244        O  0.02880434  0.50319938  0.86830877    -0.78310
Zr245      Zr  0.02778562  0.50899890  0.74103453     2.70070
O246        O  0.02905251  0.46478268  0.72346782    -0.79550
O247        O  0.02508443  0.51984408  0.69428574    -0.98640
Zr248      Zr  0.97863453  0.54624933  0.78205377     2.21500
Zr249      Zr  0.07595704  0.54627911  0.78276338     2.11130
O250        O  0.05200047  0.50683384  0.78106628    -2.47320
O251        O  0.00354449  0.50716538  0.78050204    -0.79350
O252        O  0.05322431  0.54394275  0.82325052    -0.71540
O253        O  0.00200379  0.54784035  0.74154708    -2.32500
O254        O  0.00248842  0.54402996  0.82267357    -2.28710
O255        O  0.05338694  0.54756936  0.74151611    -0.73300
H256        H  0.06212403  0.60090430  0.78643568     0.78700
H257        H  0.99028993  0.54858823  0.72654137     0.79780
H258        H  0.06284922  0.49144212  0.78154382     0.82010
H259        H  0.99103516  0.54332670  0.83760557     0.79620
H260        H  0.01114328  0.58322488  0.69070611     0.42650
H261        H  0.04143345  0.51295947  0.68689772     0.41620
H262        H  0.03055553  0.45343540  0.73928786     0.41300
H263        H  0.03818451  0.45405943  0.80037672     0.39230
H264        H  0.04143689  0.51668972  0.87374181     0.42360
H265        H  0.00931853  0.57196393  0.87606863     0.37150
H266        H  0.02667663  0.63745723  0.81493215     0.43270
H267        H  0.02542665  0.64191539  0.74301268     0.39680
H268        H  0.03344115  0.45067675  0.83078574     0.44600
H269        H  0.03306349  0.59053254  0.87971347     0.43320
H270        H  0.03574709  0.63342455  0.71510258     0.43460
H271        H  0.01149139  0.50817246  0.68715599     0.43820
C272        C  0.18544971  0.44367829  0.86621159     0.03370
C273        C  0.20175869  0.42440918  0.85577742    -0.12780
C274        C  0.22357557  0.41572418  0.87030763     0.00870
C275        C  0.22883329  0.42657320  0.89538600    -0.11310
C276        C  0.21189716  0.44540348  0.90602756     0.03360
C277        C  0.19001495  0.45313922  0.89159033    -0.10730
H278        H  0.19794337  0.41674921  0.83619357     0.08950
H279        H  0.24614126  0.42075034  0.90621586     0.06480
H280        H  0.17722622  0.46801493  0.89953787     0.06330
C281        C  0.18872157  0.64114348  0.86438933     0.03370
C282        C  0.20141035  0.66064673  0.85019404    -0.12780
C283        C  0.22391552  0.67193924  0.86046023     0.00870
C284        C  0.23207197  0.66617195  0.88621932    -0.11310
C285        C  0.21982309  0.64655414  0.90060199     0.03360
C286        C  0.19849869  0.63369802  0.88925266    -0.10730
H287        H  0.19371515  0.66743265  0.83145281     0.08950
H288        H  0.24743388  0.67751067  0.89503640     0.06480
H289        H  0.18904339  0.61824138  0.90011409     0.06330
C290        C  0.42154679  0.85085655  0.91221786     0.03370
C291        C  0.40463087  0.83588132  0.89679944    -0.12780
C292        C  0.39576217  0.84529892  0.87225027     0.00870
C293        C  0.40426987  0.86965243  0.86293649    -0.11310
C294        C  0.42162524  0.88432878  0.87832686     0.03360
C295        C  0.42944691  0.87522863  0.90318053    -0.10730
H296        H  0.39884111  0.81670480  0.90360016     0.08950
H297        H  0.39797633  0.87676248  0.84372203     0.06480
H298        H  0.44358062  0.88620170  0.91457115     0.06330
C299        C  0.64267360  0.84763174  0.91545622     0.03370
C300        C  0.66041989  0.83715759  0.89772002    -0.12780
C301        C  0.66596935  0.85057589  0.87431617     0.00870
C302        C  0.65334081  0.87450475  0.86863432    -0.11310
C303        C  0.63580402  0.88509839  0.88689365     0.03360
C304        C  0.63158336  0.87208833  0.91055958    -0.10730
H305        H  0.66995607  0.81869567  0.90207962     0.08950
H306        H  0.65702533  0.88463978  0.85026767     0.06480
H307        H  0.61849085  0.88054408  0.92484584     0.06330
C308        C  0.19097359  0.73321972  0.39898132     0.03370
C309        C  0.18100221  0.74520610  0.42167926    -0.12780
C310        C  0.16073451  0.73342377  0.43532673     0.00870
C311        C  0.15080893  0.70964068  0.42672854    -0.11310
C312        C  0.16012256  0.69751730  0.40403257     0.03360
C313        C  0.18116170  0.70881921  0.39083670    -0.10730
H314        H  0.18855551  0.76377324  0.42837244     0.08950
H315        H  0.13436926  0.70141079  0.43692241     0.06480
H316        H  0.18952700  0.69915063  0.37398531     0.06330
C317        C  0.30586777  0.81454503  0.33552526     0.02520
C318        C  0.31456027  0.80393267  0.31112543     0.02520
C319        C  0.30406746  0.77968935  0.30205594     0.02520
C320        C  0.28030936  0.77061193  0.31296256     0.02520
C321        C  0.27179509  0.78137005  0.33724779     0.02520
C322        C  0.28358561  0.80410855  0.34781507     0.02520
C323        C  0.36251672  0.70801442  0.23533285     0.03370
C324        C  0.38594989  0.71706968  0.22502679    -0.12780
C325        C  0.40095131  0.70102772  0.20871434     0.00870
C326        C  0.39209745  0.67610833  0.20207125    -0.11310
C327        C  0.36908205  0.66637548  0.21261999     0.03360
C328        C  0.35492860  0.68220606  0.23022740    -0.10730
H329        H  0.39189189  0.73703514  0.22865534     0.08950
H330        H  0.40210805  0.66521365  0.18692659     0.06480
H331        H  0.33714454  0.67497756  0.23861570     0.06330
O332        O  0.32751821  0.49376514  0.02816296    -0.75050
O333        O  0.30872881  0.52005990  0.99676846    -0.53960
C334        C  0.32279374  0.50055560  0.00400082     0.78670
O335        O  0.22762396  0.49215546  0.10785531    -0.59650
O336        O  0.24564501  0.51656538  0.14089703    -0.52680
C337        C  0.23197056  0.49718318  0.13230947     0.70690
O338        O  0.22809756  0.50085959  0.02092326    -0.74210
O339        O  0.25387364  0.52416945  0.99367924    -0.54780
C340        C  0.23615486  0.50728567  0.99787875     0.76690
O341        O  0.32495218  0.49529977  0.11885752    -0.59360
O342        O  0.30084547  0.51839549  0.14832817    -0.52480
C343        C  0.31755019  0.50064184  0.14256531     0.73280
Zr344      Zr  0.31625605  0.50856065  0.07280190     2.54710
O345        O  0.31606483  0.46101554  0.07403228    -0.79920
O346        O  0.36338413  0.50930408  0.07523441    -0.93340
Zr347      Zr  0.23850715  0.51299898  0.06637979     2.64680
O348        O  0.23067440  0.46738127  0.05578283    -0.98290
O349        O  0.19230737  0.52249678  0.06847514    -0.80360
O350        O  0.27898486  0.51024027  0.04488661    -0.83710
O351        O  0.27584930  0.50973572  0.09432758    -2.18420
O352        O  0.33055674  0.59724785  0.11912024    -0.67100
O353        O  0.30463315  0.57515758  0.14780618    -0.51670
C354        C  0.32259926  0.59174755  0.14241151     0.71670
O355        O  0.23754315  0.60835306  0.02411189    -0.60010
O356        O  0.25888028  0.58160142  0.99563214    -0.51990
C357        C  0.24503253  0.60172433  0.00091300     0.73470
O358        O  0.22909196  0.60527724  0.11221631    -0.71410
O359        O  0.24599017  0.57803238  0.14348842    -0.50080
C360        C  0.23232622  0.59816310  0.13639573     0.74850
O361        O  0.33091467  0.60183468  0.02984993    -0.66740
O362        O  0.31094556  0.57820114  0.99764499    -0.53930
C363        C  0.32610656  0.59640661  0.00539713     0.73230
Zr364      Zr  0.31959953  0.58556093  0.07386141     2.77540
O365        O  0.32439657  0.63287175  0.07504497    -0.97490
O366        O  0.36632916  0.57887764  0.07472579    -0.78310
Zr367      Zr  0.24231640  0.59024273  0.06862808     2.70070
O368        O  0.24378399  0.63773550  0.06902747    -0.79550
O369        O  0.19541557  0.58946349  0.06324711    -0.98640
Zr370      Zr  0.28217673  0.54992008  0.02114163     2.21500
Zr371      Zr  0.27541952  0.54807784  0.12107236     2.11130
O372        O  0.27946295  0.58768793  0.09654576    -2.47320
O373        O  0.28242745  0.58870629  0.04645314    -0.79350
O374        O  0.31618855  0.54667695  0.09922394    -0.71540
O375        O  0.24118063  0.55227331  0.04184878    -2.32500
O376        O  0.32042756  0.54739130  0.04767199    -2.28710
O377        O  0.23778845  0.55100413  0.09340163    -0.73300
H378        H  0.27522368  0.49413786  0.10497973     0.78700
H379        H  0.22718449  0.55360111  0.02907741     0.79780
H380        H  0.27959593  0.60257154  0.10818729     0.82010
H381        H  0.33579305  0.54686688  0.03697037     0.79620
H382        H  0.18758111  0.52873404  0.05052624     0.42650
H383        H  0.18909678  0.58136518  0.07971484     0.41620
H384        H  0.26157321  0.64184126  0.07515156     0.41300
H385        H  0.31080464  0.63907180  0.08717495     0.39230
H386        H  0.36935587  0.56583381  0.08891819     0.42360
H387        H  0.36890326  0.51476007  0.05740791     0.37150
H388        H  0.29746929  0.45639073  0.07367747     0.43270
H389        H  0.24480121  0.45763712  0.06488243     0.39680
H390        H  0.34090869  0.63588974  0.08466302     0.44600
H391        H  0.36854446  0.49066954  0.07652452     0.43320
H392        H  0.21464049  0.46278250  0.06520365     0.43460
H393        H  0.19004121  0.60802564  0.06449576     0.43820
O394        O  0.97936744  0.50603858  0.37858617    -0.75050
O395        O  0.00620247  0.47468451  0.36243429    -0.53960
C396        C  0.98543092  0.48197111  0.37423087     0.78670
O397        O  0.98623778  0.58893771  0.27895574    -0.59650
O398        O  0.00571084  0.62160437  0.30226799    -0.52680
C399        C  0.98896982  0.61301358  0.28527203     0.70690
O400        O  0.98676783  0.50253761  0.28376522    -0.74210
O401        O  0.00973169  0.47242184  0.30800522    -0.54780
C402        C  0.99216339  0.47908757  0.29111010     0.76690
O403        O  0.98154593  0.59316498  0.38216152    -0.59360
O404        O  0.00547331  0.62355167  0.36040356    -0.52480
C405        C  0.98654559  0.61686090  0.37540974     0.73280
Zr406      Zr  0.99861190  0.54944742  0.37312058     2.54710
O407        O  0.95196774  0.55278023  0.37867037    -0.79920
O408        O  0.00493770  0.54807295  0.42082723    -0.93340
Zr409      Zr  0.00004774  0.54657410  0.29431087     2.64680
O410        O  0.95290749  0.54482002  0.29421272    -0.98290
O411        O  0.00228823  0.54509291  0.24635074    -0.80360
O412        O  0.99880767  0.52329093  0.33458748    -0.83710
O413        O  0.99847202  0.57308191  0.33269596    -2.18420
O414        O  0.09219783  0.59275396  0.38194727    -0.67100
O415        O  0.06885581  0.62338395  0.35891168    -0.51670
C416        C  0.08776800  0.61636385  0.37441251     0.71670
O417        O  0.09296416  0.50366985  0.29017994    -0.60010
O418        O  0.06877529  0.47338707  0.31161609    -0.51990
C419        C  0.08780038  0.48007223  0.29707893     0.73470
O420        O  0.08578469  0.59172378  0.28451409    -0.71410
O421        O  0.06391606  0.62490943  0.30366601    -0.50080
C422        C  0.08144542  0.61623046  0.28810182     0.74850
O423        O  0.09241822  0.50536892  0.38323241    -0.66740
O424        O  0.06747854  0.47414693  0.36432681    -0.53930
C425        C  0.08713429  0.48125654  0.37815512     0.73230
Zr426      Zr  0.07470338  0.54927422  0.37468558     2.77540
O427        O  0.12161317  0.54580784  0.38011624    -0.97490
O428        O  0.06888674  0.55065317  0.42228486    -0.78310
Zr429      Zr  0.07507619  0.54727083  0.29613739     2.70070
O430        O  0.12199279  0.55036758  0.29329984    -0.79550
O431        O  0.07183472  0.54374109  0.24831447    -0.98640
Zr432      Zr  0.03748182  0.49810942  0.33637386     2.21500
Zr433      Zr  0.03633151  0.59962754  0.33281892     2.11130
O434        O  0.07496689  0.57334886  0.33449212    -2.47320
O435        O  0.07559244  0.52355278  0.33617248    -0.79350
O436        O  0.03646037  0.57578964  0.37368129    -0.71540
O437        O  0.03798044  0.52073277  0.29521212    -2.32500
O438        O  0.03680748  0.52332738  0.37595338    -2.28710
O439        O  0.03718601  0.57327487  0.29381613    -0.73300
H440        H  0.98298482  0.58371421  0.33172202     0.78700
H441        H  0.03855406  0.50881306  0.28046524     0.79780
H442        H  0.09033860  0.58394550  0.33384441     0.82010
H443        H  0.03679785  0.51217672  0.39137090     0.79620
H444        H  0.01621654  0.53229724  0.24258266     0.42650
H445        H  0.06184614  0.55943869  0.24275170     0.41620
H446        H  0.12825646  0.54748546  0.31163577     0.41300
H447        H  0.12892760  0.56123013  0.37110086     0.39230
H448        H  0.06061427  0.56783495  0.42555781     0.42360
H449        H  0.00751213  0.52935635  0.42513690     0.37150
H450        H  0.94475302  0.55104778  0.36056668     0.43270
H451        H  0.94748458  0.55810285  0.30724007     0.39680
H452        H  0.12500249  0.54870305  0.39914594     0.44600
H453        H  0.98768931  0.55241814  0.42802414     0.43320
H454        H  0.94746323  0.55207480  0.27686549     0.43460
H455        H  0.08964168  0.54704508  0.24211953     0.43820
C456        C  0.19769389  0.42924814  0.21699557     0.03370
C457        C  0.17390850  0.43191678  0.22962900    -0.12780
C458        C  0.16969413  0.41992661  0.25393804     0.00870
C459        C  0.18728962  0.40128975  0.26358302    -0.11310
C460        C  0.21034070  0.39602191  0.24998168     0.03360
C461        C  0.21537672  0.41007184  0.22656588    -0.10730
H462        H  0.15914211  0.44469679  0.22155127     0.08950
H463        H  0.18378174  0.39214795  0.28252467     0.06480
H464        H  0.23307246  0.40643764  0.21605211     0.06330
C465        C  0.90293160  0.42567751  0.25513454     0.03370
C466        C  0.88875935  0.40496377  0.26576329    -0.12780
C467        C  0.86444035  0.39859646  0.25514425     0.00870
C468        C  0.85548187  0.41132551  0.23210790    -0.11310
C469        C  0.87006976  0.43149218  0.22054774     0.03360
C470        C  0.89320126  0.43908626  0.23290025    -0.10730
H471        H  0.89643563  0.39386440  0.28231725     0.08950
H472        H  0.83700181  0.40581147  0.22350202     0.06480
H473        H  0.90371712  0.45565031  0.22519656     0.06330
C474        C  0.86742055  0.67019031  0.21249253     0.03370
C475        C  0.89191281  0.66313168  0.22229645    -0.12780
C476        C  0.90087350  0.67240222  0.24662741     0.00870
C477        C  0.88573236  0.69029044  0.26090331    -0.11310
C478        C  0.86131392  0.69819216  0.25098113     0.03360
C479        C  0.85241697  0.68828151  0.22668903    -0.10730
H480        H  0.90305705  0.64819040  0.21228233     0.08950
H481        H  0.89234809  0.69705525  0.28006005     0.06480
H482        H  0.83329327  0.69377336  0.21945068     0.06330
O483        O  0.73518758  0.59885657  0.01833725    -0.75050
O484        O  0.75878970  0.57517113  0.98891894    -0.53960
C485        C  0.74195428  0.59278553  0.99458756     0.78670
O486        O  0.83254661  0.60198121  0.11209080    -0.59650
O487        O  0.81033118  0.57838500  0.14244690    -0.52680
C488        C  0.82571800  0.59708559  0.13586913     0.70690
O489        O  0.83307271  0.60547738  0.02457134    -0.74210
O490        O  0.81407233  0.57947628  0.99370847    -0.54780
C491        C  0.82802197  0.59914238  0.00048056     0.76690
O492        O  0.73304015  0.59685992  0.10895316    -0.59360
O493        O  0.75306152  0.57341828  0.14148541    -0.52480
C494        C  0.73673635  0.59103095  0.13346552     0.73280
Zr495      Zr  0.74631904  0.58542472  0.06416262     2.54710
O496        O  0.74731034  0.63296266  0.06454434    -0.79920
O497        O  0.69921839  0.58420087  0.06191640    -0.93340
Zr498      Zr  0.82363914  0.58647259  0.06790755     2.64680
O499        O  0.82867075  0.63316363  0.07516307    -0.98290
O500        O  0.87042283  0.57997812  0.06778732    -0.80360
O501        O  0.78573093  0.58748299  0.04088796    -0.83710
O502        O  0.78403907  0.58562528  0.09139001    -2.18420
O503        O  0.73681638  0.49129444  0.10658480    -0.67100
O504        O  0.75654716  0.51419893  0.13951894    -0.51670
C505        C  0.74200287  0.49541009  0.13101232     0.71670
O506        O  0.83386205  0.49298716  0.02197624    -0.60010
O507        O  0.81556086  0.52059849  0.99193537    -0.51990
C508        C  0.82870000  0.50017850  0.99788256     0.73470
O509        O  0.83545698  0.49304854  0.11238235    -0.71410
O510        O  0.81267228  0.51679413  0.14241914    -0.50080
C511        C  0.82851743  0.49825073  0.13626831     0.74850
O512        O  0.73896145  0.49295255  0.02022397    -0.66740
O513        O  0.76295064  0.51595023  0.99076171    -0.53930
C514        C  0.74742701  0.49744174  0.99699087     0.73230
Zr515      Zr  0.74918872  0.50821229  0.06405873     2.77540
O516        O  0.75786698  0.46250871  0.05404307    -0.97490
O517        O  0.70217235  0.50515835  0.06395557    -0.78310
Zr518      Zr  0.82647027  0.50967913  0.06737491     2.70070
O519        O  0.83580618  0.46297929  0.06778339    -0.79550
O520        O  0.87268581  0.51879412  0.06726755    -0.98640
Zr521      Zr  0.78711605  0.54834097  0.01601409     2.21500
Zr522      Zr  0.78431010  0.54654272  0.11751077     2.11130
O523        O  0.78690424  0.50793614  0.09115972    -2.47320
O524        O  0.78842168  0.50932787  0.04096339    -0.79350
O525        O  0.74633289  0.54653198  0.09000201    -0.71540
O526        O  0.82630235  0.54846423  0.04155743    -2.32500
O527        O  0.74711528  0.54692074  0.03852052    -2.28710
O528        O  0.82448571  0.54781215  0.09418501    -0.73300
H529        H  0.78310517  0.60084915  0.10257183     0.78700
H530        H  0.84131974  0.54903166  0.03036524     0.79780
H531        H  0.78692368  0.49235746  0.10193104     0.82010
H532        H  0.73257140  0.54638425  0.02636506     0.79620
H533        H  0.87569889  0.58422864  0.04955321     0.42650
H534        H  0.87790976  0.51850114  0.08613710     0.41620
H535        H  0.82023580  0.45488521  0.05976941     0.41300
H536        H  0.77166501  0.45674973  0.06645433     0.39230
H537        H  0.69621110  0.52263412  0.06975339     0.42360
H538        H  0.69518648  0.57247659  0.04692625     0.37150
H539        H  0.76477717  0.63739672  0.05810063     0.43270
H540        H  0.81545665  0.64159586  0.06364819     0.39680
H541        H  0.74221636  0.45263188  0.05872254     0.44600
H542        H  0.69403352  0.60181851  0.05558660     0.43320
H543        H  0.84553516  0.63760261  0.06729993     0.43460
H544        H  0.88065457  0.50283826  0.05977884     0.43820
C545        C  0.69178777  0.94344000  0.36481493     0.03370
C546        C  0.70305974  0.91922457  0.35880468    -0.12780
C547        C  0.71993671  0.90609740  0.37709880     0.00870
C548        C  0.72525590  0.91950142  0.40102965    -0.11310
C549        C  0.71643035  0.94512673  0.40517068     0.03360
C550        C  0.69941355  0.95670612  0.38736621    -0.10730
H551        H  0.69772301  0.91072690  0.34003292     0.08950
H552        H  0.73534421  0.91087255  0.41729248     0.06480
H553        H  0.69094600  0.97564529  0.39181293     0.06330
C554        C  0.91105764  0.69494356  0.40785326     0.03370
C555        C  0.89030979  0.70279457  0.39117890    -0.12780
C556        C  0.87754341  0.72680238  0.39526686     0.00870
C557        C  0.88382309  0.74166355  0.41761024    -0.11310
C558        C  0.90420299  0.73396142  0.43424672     0.03360
C559        C  0.91804175  0.71098731  0.42901022    -0.10730
H560        H  0.88479893  0.69069774  0.37457935     0.08950
H561        H  0.87338681  0.75964441  0.42152527     0.06480
H562        H  0.93483512  0.70599826  0.44109870     0.06330
C563        C  0.77077726  0.81758499  0.32541025     0.02520
C564        C  0.79664110  0.81003462  0.33424630     0.02520
C565        C  0.80551895  0.78437519  0.32740703     0.02520
C566        C  0.79473604  0.77200496  0.30500803     0.02520
C567        C  0.77131484  0.78116931  0.29349422     0.02520
C568        C  0.76224331  0.80697049  0.30041739     0.02520
C569        C  0.70918162  0.70653188  0.23287056     0.03370
C570        C  0.71488745  0.68093903  0.22394061    -0.12780
C571        C  0.69673196  0.66708783  0.20830707     0.00870
C572        C  0.67220214  0.67844226  0.20376019    -0.11310
C573        C  0.66732032  0.70453102  0.21009433     0.03360
C574        C  0.68542802  0.71828152  0.22535919    -0.10730
H575        H  0.73357328  0.67229729  0.22825430     0.08950
H576        H  0.65798568  0.66819289  0.19181266     0.06480
H577        H  0.68173648  0.73861562  0.23005629     0.06330
O578        O  0.59087019  0.81528056  0.02701066    -0.75050
O579        O  0.56545512  0.79595875  0.99599295    -0.53960
C580        C  0.58548120  0.80919515  0.00304733     0.78670
O581        O  0.58625511  0.73075557  0.11985447    -0.59650
O582        O  0.56273772  0.75337961  0.14988519    -0.52680
C583        C  0.58224600  0.73907488  0.14347121     0.70690
O584        O  0.59112195  0.72929714  0.03109448    -0.74210
O585        O  0.56436197  0.74233514  0.99772703    -0.54780
C586        C  0.58529435  0.73131879  0.00634203     0.76690
O587        O  0.58563728  0.82453316  0.11315384    -0.59360
O588        O  0.56162397  0.80525226  0.14521222    -0.52480
C589        C  0.58023823  0.81996025  0.13737170     0.73280
Zr590      Zr  0.57032699  0.81237305  0.06971596     2.54710
O591        O  0.61675682  0.81842179  0.07519224    -0.79920
O592        O  0.56366636  0.85933182  0.06504311    -0.93340
Zr593      Zr  0.57032698  0.73430057  0.07427005     2.64680
O594        O  0.61609711  0.72307098  0.07733366    -0.98290
O595        O  0.56333121  0.68731360  0.07515912    -0.80360
O596        O  0.57176875  0.77197002  0.04722558    -0.83710
O597        O  0.57022528  0.77481176  0.09672142    -2.18420
O598        O  0.47822520  0.82599438  0.11091617    -0.67100
O599        O  0.50173393  0.80619288  0.14357096    -0.51670
C600        C  0.48329827  0.82137476  0.13558729     0.71670
O601        O  0.47486116  0.73168832  0.02661708    -0.60010
O602        O  0.50369796  0.74422006  0.99549769    -0.51990
C603        C  0.48181818  0.73474343  0.00244131     0.73470
O604        O  0.47428408  0.73112781  0.11363237    -0.71410
O605        O  0.49914688  0.75072713  0.14538025    -0.50080
C606        C  0.47894498  0.73794817  0.13760171     0.74850
O607        O  0.47970164  0.81904832  0.02124070    -0.66740
O608        O  0.50563172  0.79704116  0.99299487    -0.53930
C609        C  0.48626701  0.81196667  0.99777437     0.73230
Zr610      Zr  0.49468420  0.81346290  0.06704014     2.77540
O611        O  0.44771211  0.81817752  0.06457349    -0.97490
O612        O  0.50072154  0.86046686  0.06344263    -0.78310
Zr613      Zr  0.49476019  0.73499717  0.07081744     2.70070
O614        O  0.45077967  0.71821993  0.07137725    -0.79550
O615        O  0.50586388  0.68871039  0.07094288    -0.98640
Zr616      Zr  0.53407003  0.77078685  0.02019205     2.21500
Zr617      Zr  0.53150037  0.77647341  0.12180789     2.11130
O618        O  0.49442509  0.77559392  0.09354566    -2.47320
O619        O  0.49478497  0.77299014  0.04415071    -0.79350
O620        O  0.53196616  0.81497518  0.09492676    -0.71540
O621        O  0.53332069  0.73186322  0.04619050    -2.32500
O622        O  0.53321802  0.81217089  0.04193347    -2.28710
O623        O  0.53173823  0.73513196  0.09948637    -0.73300
H624        H  0.58557749  0.77594268  0.10766329     0.78700
H625        H  0.53360815  0.71643610  0.03523729     0.79780
H626        H  0.47917764  0.77723330  0.10388981     0.82010
H627        H  0.53361918  0.82635650  0.02933195     0.79620
H628        H  0.56428536  0.68187469  0.05645119     0.42650
H629        H  0.49869107  0.68199597  0.08766830     0.41620
H630        H  0.43970452  0.73400782  0.07281969     0.41300
H631        H  0.44105637  0.80613398  0.07819564     0.39230
H632        H  0.50663750  0.86588304  0.08125797     0.42360
H633        H  0.55934602  0.86216696  0.04616624     0.37150
H634        H  0.62389903  0.80045206  0.07654991     0.43270
H635        H  0.62450755  0.73829117  0.08577473     0.39680
H636        H  0.44405098  0.83590145  0.07145422     0.44600
H637        H  0.58116552  0.86685181  0.06735541     0.43320
H638        H  0.61778921  0.70855552  0.09021140     0.43460
H639        H  0.49466571  0.68111057  0.05698226     0.43820
C640        C  0.41517854  0.87230844  0.21165182     0.03370
C641        C  0.39802369  0.85677547  0.22633052    -0.12780
C642        C  0.38571469  0.86681622  0.24879111     0.00870
C643        C  0.38967997  0.89305211  0.25588062    -0.11310
C644        C  0.40648967  0.90881592  0.24121835     0.03360
C645        C  0.41947843  0.89813160  0.21956835    -0.10730
H646        H  0.39514213  0.83650300  0.22095878     0.08950
H647        H  0.38067282  0.90081359  0.27345130     0.06480
H648        H  0.43459720  0.90936215  0.21032426     0.06330
C649        C  0.65203263  0.87191976  0.20825600     0.03370
C650        C  0.67335321  0.85944402  0.22040839    -0.12780
C651        C  0.68603895  0.87034980  0.24279693     0.00870
C652        C  0.67575205  0.89383760  0.25319834    -0.11310
C653        C  0.65565938  0.90723780  0.23982009     0.03360
C654        C  0.64472342  0.89663734  0.21702749    -0.10730
H655        H  0.67946164  0.84093305  0.21247049     0.08950
H656        H  0.68271688  0.90146199  0.27179051     0.06480
H657        H  0.62872825  0.90682677  0.20734197     0.06330
C658        C  0.66910312  0.38579466  0.20767709     0.03370
C659        C  0.67880770  0.40877810  0.19666758    -0.12780
C660        C  0.70253863  0.41885589  0.20465206     0.00870
C661        C  0.71753928  0.40504332  0.22310137    -0.11310
C662        C  0.70776202  0.38321897  0.23704911     0.03360
C663        C  0.68314539  0.37371201  0.22868284    -0.10730
H664        H  0.66924210  0.41758248  0.17969013     0.08950
H665        H  0.73743755  0.41075165  0.22455654     0.06480
H666        H  0.67562208  0.35584176  0.23686922     0.06330
C667        C  0.80185531  0.31846821  0.30406770     0.02520
C668        C  0.81250214  0.30536549  0.32628904     0.02520
C669        C  0.80514273  0.27935970  0.33163612     0.02520
C670        C  0.78472125  0.26795938  0.31635566     0.02520
C671        C  0.77317700  0.28182992  0.29400878     0.02520
C672        C  0.77841246  0.30939484  0.29172665     0.02520
C673        C  0.68785500  0.16263617  0.37628675     0.03370
C674        C  0.70248647  0.18077650  0.36223104    -0.12780
C675        C  0.72499316  0.19128864  0.37360572     0.00870
C676        C  0.73344798  0.18264442  0.39859839    -0.11310
C677        C  0.71877898  0.16436342  0.41255802     0.03360
C678        C  0.69587522  0.15473702  0.40148648    -0.10730
H679        H  0.69654029  0.18651027  0.34245800     0.08950
H680        H  0.75153204  0.18970125  0.40689038     0.06480
H681        H  0.68512836  0.13978247  0.41181025     0.06330
O682        O  0.48709691  0.99504186  0.26105553    -0.75050
O683        O  0.45666227  0.02155900  0.27956097    -0.53960
C684        C  0.46396681  0.99989283  0.26889874     0.78670
O685        O  0.57744357  0.99423763  0.34021465    -0.59650
O686        O  0.60624482  0.02046316  0.31967515    -0.52680
C687        C  0.60061890  0.99997400  0.33303382     0.70690
O688        O  0.49072527  0.00113986  0.34876442    -0.74210
O689        O  0.45906802  0.02663080  0.33073301    -0.54780
C690        C  0.46672373  0.00712924  0.34494302     0.76690
O691        O  0.57062440  0.99596056  0.25000189    -0.59360
O692        O  0.60354468  0.01966306  0.26792858    -0.52480
C693        C  0.59476076  0.99949407  0.25596986     0.73280
Zr694      Zr  0.52832831  0.01738118  0.25684365     2.54710
O695        O  0.52560117  0.97581508  0.23368907    -0.79920
O696        O  0.52190494  0.03196989  0.21144633    -0.93340
Zr697      Zr  0.53403528  0.01434339  0.33646725     2.64680
O698        O  0.52741746  0.96753006  0.34112369    -0.98290
O699        O  0.54043795  0.01853891  0.38394710    -0.80360
O700        O  0.50726947  0.01703766  0.29821940    -0.83710
O701        O  0.55469415  0.01367345  0.29518843    -2.18420
O702        O  0.57497394  0.10952247  0.25086982    -0.67100
O703        O  0.60494088  0.07989139  0.26604139    -0.51670
C704        C  0.59849273  0.10141353  0.25474276     0.71670
O705        O  0.49666827  0.11083114  0.34838628    -0.60010
O706        O  0.46282503  0.08861639  0.33007501    -0.51990
C707        C  0.47248938  0.10707861  0.34434533     0.73470
O708        O  0.58207377  0.10428052  0.34482755    -0.71410
O709        O  0.60902329  0.07969130  0.32002169    -0.50080
C710        C  0.60478313  0.09826618  0.33634667     0.74850
O711        O  0.48601973  0.11022517  0.25413938    -0.66740
O712        O  0.45555335  0.08540218  0.27405413    -0.53930
C713        C  0.46222498  0.10470728  0.25923888     0.73230
Zr714      Zr  0.53067204  0.09388522  0.25984623     2.77540
O715        O  0.53071303  0.14149366  0.25979035    -0.97490
O716        O  0.52885394  0.09288323  0.21182676    -0.78310
Zr717      Zr  0.53732657  0.09023451  0.33857947     2.70070
O718        O  0.54137365  0.13658796  0.34832823    -0.79550
O719        O  0.53912543  0.08089157  0.38571597    -0.98640
Zr720      Zr  0.48208952  0.05583902  0.30125072     2.21500
Zr721      Zr  0.58119376  0.05146067  0.29443985     2.11130
O722        O  0.55802636  0.09152780  0.29754608    -2.47320
O723        O  0.50936408  0.09323896  0.30103618    -0.79350
O724        O  0.55524902  0.05457283  0.25528957    -0.71540
O725        O  0.50950620  0.05357760  0.33983616    -2.32500
O726        O  0.50330960  0.05647640  0.25931495    -2.28710
O727        O  0.56166555  0.05105824  0.33678927    -0.73300
H728        H  0.56408838  0.99737207  0.29498990     0.78700
H729        H  0.49943363  0.05375990  0.35579616     0.79780
H730        H  0.56927163  0.10649217  0.29770543     0.82010
H731        H  0.49082516  0.05734680  0.24497676     0.79620
H732        H  0.52276513  0.02079964  0.39101807     0.42650
H733        H  0.55562308  0.07120483  0.38834329     0.41620
H734        H  0.54211785  0.14509520  0.33077467     0.41300
H735        H  0.54235795  0.14633153  0.27463488     0.39230
H736        H  0.54626401  0.08671392  0.20657120     0.42360
H737        H  0.50636662  0.02245024  0.20521430     0.37150
H738        H  0.52822399  0.96239447  0.24761200     0.43270
H739        H  0.53988303  0.95927109  0.32895163     0.39680
H740        H  0.54024125  0.14654589  0.24372965     0.44600
H741        H  0.53643976  0.02394682  0.20170656     0.43320
H742        H  0.53379500  0.96321861  0.35912112     0.43460
H743        H  0.54228730  0.09807637  0.39403694     0.43820
O744        O  0.49269896  0.35516599  0.02281016    -0.75050
O745        O  0.46153714  0.33168990  0.04341080    -0.53960
C746        C  0.46903105  0.34869521  0.02630140     0.78670
O747        O  0.57762103  0.25681864  0.01701194    -0.59650
O748        O  0.60836316  0.27709797  0.04250831    -0.52680
C749        C  0.60113499  0.26314990  0.02259723     0.70690
O750        O  0.49046272  0.25709675  0.01490407    -0.74210
O751        O  0.45917409  0.27520549  0.04077011    -0.54780
C752        C  0.46666776  0.26211678  0.02054214     0.76690
O753        O  0.57852976  0.35135550  0.02292384    -0.59360
O754        O  0.60909254  0.32918967  0.04682001    -0.52480
C755        C  0.60216801  0.34458159  0.02774142     0.73280
Zr756      Zr  0.53514222  0.34288970  0.03977411     2.54710
O757        O  0.53876686  0.35016101  0.99257544    -0.79920
O758        O  0.53643915  0.38946958  0.04930477    -0.93340
Zr759      Zr  0.53390900  0.26497034  0.03293731     2.64680
O760        O  0.53339335  0.26447337  0.98483402    -0.98290
O761        O  0.53506736  0.21745388  0.03541783    -0.80360
O762        O  0.50973092  0.30446593  0.03487172    -0.83710
O763        O  0.55876393  0.30357454  0.03680882    -2.18420
O764        O  0.57440039  0.34366248  0.13660569    -0.67100
O765        O  0.60665451  0.32470309  0.11269259    -0.51670
C766        C  0.59828820  0.33806632  0.13266607     0.71670
O767        O  0.48950276  0.25343392  0.12842593    -0.60010
O768        O  0.45858442  0.27489943  0.10442171    -0.51990
C769        C  0.46575542  0.26044212  0.12415738     0.73470
O770        O  0.57735295  0.24582854  0.12104127    -0.71410
O771        O  0.60867119  0.26890592  0.10063273    -0.50080
C772        C  0.60132607  0.25135788  0.11684584     0.74850
O773        O  0.48863358  0.34274589  0.13228739    -0.66740
O774        O  0.45855954  0.32630178  0.10371661    -0.53930
C775        C  0.46515055  0.33871034  0.12472871     0.73230
Zr776      Zr  0.53252193  0.33590663  0.11645180     2.77540
O777        O  0.52937911  0.33686514  0.16443367    -0.97490
O778        O  0.53190246  0.38343131  0.11404952    -0.78310
Zr779      Zr  0.53289488  0.25840949  0.10947468     2.70070
O780        O  0.53894043  0.24812358  0.15606926    -0.79550
O781        O  0.52775091  0.21208429  0.10020821    -0.98640
Zr782      Zr  0.48337513  0.30083406  0.07295748     2.21500
Zr783      Zr  0.58433795  0.30102653  0.07617951     2.11130
O784        O  0.55759944  0.29697841  0.11422152    -2.47320
O785        O  0.50816523  0.29723398  0.11259492    -0.79350
O786        O  0.56008911  0.34079366  0.07932715    -0.71540
O787        O  0.50730428  0.26078156  0.07043827    -2.32500
O788        O  0.50785382  0.34018172  0.07707083    -2.28710
O789        O  0.55960188  0.26159434  0.07191947    -0.73300
H790        H  0.56936481  0.30461165  0.02130520     0.78700
H791        H  0.49593971  0.24591106  0.06904291     0.79780
H792        H  0.56795604  0.29511108  0.13010295     0.82010
H793        H  0.49660678  0.35531170  0.07799590     0.79620
H794        H  0.51664968  0.21222101  0.03592311     0.42650
H795        H  0.54485294  0.20643581  0.09355573     0.41620
H796        H  0.54422388  0.26484929  0.16424135     0.41300
H797        H  0.54157646  0.32318482  0.17086211     0.39230
H798        H  0.55020556  0.38830618  0.11129910     0.42360
H799        H  0.51847680  0.39409975  0.05420489     0.37150
H800        H  0.54287496  0.33271126  0.98524950     0.43270
H801        H  0.54613734  0.27784098  0.97957998     0.39680
H802        H  0.53729416  0.35360135  0.16991505     0.44600
H803        H  0.53882845  0.39783029  0.03186047     0.43320
H804        H  0.54142851  0.24756662  0.97994576     0.43460
H805        H  0.52654843  0.20382152  0.11784506     0.43820
C806        C  0.36543621  0.22542574  0.24005806     0.03370
C807        C  0.37394051  0.19950123  0.24527802    -0.12780
C808        C  0.38762255  0.18518652  0.22594543     0.00870
C809        C  0.39092924  0.19681178  0.20101090    -0.11310
C810        C  0.38716693  0.22365174  0.19736144     0.03360
C811        C  0.37368149  0.23784827  0.21668035    -0.10730
H812        H  0.37096364  0.19109626  0.26464269     0.08950
H813        H  0.40103520  0.18610309  0.18576606     0.06480
H814        H  0.37064646  0.25867553  0.21412570     0.06330
C815        C  0.41020854  0.19449737  0.89952446     0.03370
C816        C  0.41524505  0.20207348  0.92551076    -0.12780
C817        C  0.40231964  0.22328026  0.93669912     0.00870
C818        C  0.38426867  0.23752474  0.92121184    -0.11310
C819        C  0.37884942  0.23010528  0.89500140     0.03360
C820        C  0.39145641  0.20810010  0.88445089    -0.10730
H821        H  0.43104045  0.19271815  0.93630538     0.08950
H822        H  0.37574214  0.25528782  0.92897096     0.06480
H823        H  0.38750068  0.20233738  0.86424790     0.06330
C824        C  0.65518239  0.22847620  0.93145635     0.03370
C825        C  0.63943633  0.20994977  0.91929943    -0.12780
C826        C  0.64550247  0.19991801  0.89449999     0.00870
C827        C  0.66730263  0.20951836  0.88109514    -0.11310
C828        C  0.68414017  0.22774720  0.89336145     0.03360
C829        C  0.67803386  0.23630135  0.91916286    -0.10730
H830        H  0.62218556  0.20326843  0.92924419     0.08950
H831        H  0.67125446  0.20243656  0.86147768     0.06480
H832        H  0.69071819  0.24942334  0.92981286     0.06330
O833        O  0.58217451  0.00186539  0.76858263    -0.75050
O834        O  0.55823872  0.97207438  0.79101770    -0.53960
C835        C  0.57610235  0.97818211  0.77491407     0.78670
O836        O  0.58391812  0.09084752  0.86892591    -0.59650
O837        O  0.55852482  0.12097404  0.84796058    -0.52680
C838        C  0.57797147  0.11460560  0.86281645     0.70690
O839        O  0.58408018  0.00298453  0.87118562    -0.74210
O840        O  0.55996109  0.97401907  0.84767226    -0.54780
C841        C  0.57819121  0.97960691  0.86418697     0.76690
O842        O  0.58166200  0.09136693  0.77088968    -0.59360
O843        O  0.55768498  0.12152260  0.79352582    -0.52480
C844        C  0.57589531  0.11487702  0.77780373     0.73280
Zr845      Zr  0.56802812  0.04677574  0.78003972     2.54710
O846        O  0.61513907  0.04681184  0.77868986    -0.79920
O847        O  0.56518484  0.04849070  0.73205914    -0.93340
Zr848      Zr  0.56817837  0.04664126  0.85940146     2.64680
O849        O  0.61531956  0.04536636  0.85836764    -0.98290
O850        O  0.56656753  0.04795066  0.90739089    -0.80360
O851        O  0.56959228  0.02203557  0.81961227    -0.83710
O852        O  0.56783485  0.07129550  0.81990023    -2.18420
O853        O  0.47865016  0.09248938  0.76816344    -0.67100
O854        O  0.50162593  0.12242188  0.79158487    -0.51670
C855        C  0.48449529  0.11624567  0.77416967     0.71670
O856        O  0.47246020  0.00068663  0.86093560    -0.60010
O857        O  0.50055495  0.97223115  0.84232684    -0.51990
C858        C  0.47944577  0.97738069  0.85430702     0.73470
O859        O  0.47398483  0.08838215  0.86829434    -0.71410
O860        O  0.49808437  0.11951141  0.84834007    -0.50080
C861        C  0.47922144  0.11235903  0.86313737     0.74850
O862        O  0.47613542  0.00247882  0.77156215    -0.66740
O863        O  0.50279646  0.97219103  0.79111046    -0.53930
C864        C  0.48310763  0.97875230  0.77694973     0.73230
Zr865      Zr  0.49124756  0.04724811  0.77921618     2.77540
O866        O  0.44407713  0.04749287  0.77675967    -0.97490
O867        O  0.49378260  0.04551488  0.73130590    -0.78310
Zr868      Zr  0.49084831  0.04499465  0.85803152     2.70070
O869        O  0.44396702  0.04535135  0.86183026    -0.79550
O870        O  0.49536942  0.04052887  0.90570800    -0.98640
Zr871      Zr  0.53084695  0.99780135  0.81863949     2.21500
Zr872      Zr  0.52872724  0.09628226  0.82050315     2.11130
O873        O  0.49008925  0.07111533  0.81913823    -2.47320
O874        O  0.49145760  0.02161763  0.81807198    -0.79350
O875        O  0.52947456  0.07263680  0.77984209    -0.71540
O876        O  0.53007574  0.02053691  0.85946636    -2.32500
O877        O  0.52983112  0.02178138  0.77838738    -2.28710
O878        O  0.52886848  0.07133821  0.86031485    -0.73300
H879        H  0.58286884  0.08239788  0.82003733     0.78700
H880        H  0.53010490  0.00858712  0.87426478     0.79780
H881        H  0.47483551  0.08213613  0.81877790     0.82010
H882        H  0.52976673  0.01031862  0.76325994     0.79620
H883        H  0.55577355  0.03281299  0.91229416     0.42650
H884        H  0.50439244  0.05662117  0.91136226     0.41620
H885        H  0.43757497  0.04976797  0.84384841     0.41300
H886        H  0.43866191  0.06454562  0.78414105     0.39230
H887        H  0.50952102  0.05556777  0.72706401     0.42360
H888        H  0.55820615  0.03126492  0.72682335     0.37150
H889        H  0.62065341  0.04301186  0.79709874     0.43270
H890        H  0.62069536  0.06212630  0.85038903     0.39680
H891        H  0.43988899  0.04873402  0.75767906     0.44600
H892        H  0.58343238  0.04806865  0.72625483     0.43320
H893        H  0.62091330  0.04639909  0.87707378     0.43460
H894        H  0.47751702  0.04263081  0.91235883     0.43820
C895        C  0.67944442  0.37552253  0.95059527     0.03370
C896        C  0.68771560  0.40124833  0.95487859    -0.12780
C897        C  0.70579823  0.41302493  0.93847395     0.00870
C898        C  0.71658023  0.39878144  0.91782903    -0.11310
C899        C  0.71009455  0.37251706  0.91404919     0.03360
C900        C  0.69050587  0.36121442  0.92962275    -0.10730
H901        H  0.68073903  0.41195596  0.97186356     0.08950
H902        H  0.73127709  0.40772113  0.90573066     0.06480
H903        H  0.68431210  0.34150365  0.92551100     0.06330
C904        C  0.85590432  0.37733555  0.73144779     0.03370
C905        C  0.86738359  0.40103378  0.73984980    -0.12780
C906        C  0.88508127  0.41412871  0.72339800     0.00870
C907        C  0.89079699  0.40356046  0.69868844    -0.11310
C908        C  0.88108312  0.37923969  0.69112378     0.03360
C909        C  0.86300049  0.36671786  0.70699725    -0.10730
H910        H  0.86405554  0.40819310  0.75962811     0.08950
H911        H  0.90590461  0.41241666  0.68699925     0.06480
H912        H  0.85655336  0.34729445  0.70162785     0.06330
C913        C  0.79855338  0.30720735  0.80083721     0.02520
C914        C  0.78959440  0.31988553  0.82415588     0.02520
C915        C  0.76729566  0.31053207  0.83745803     0.02520
C916        C  0.75680571  0.28595630  0.82997420     0.02520
C917        C  0.76067304  0.27829121  0.80310555     0.02520
C918        C  0.78514343  0.28443880  0.79184420     0.02520
C919        C  0.65722169  0.17886363  0.73973210     0.03370
C920        C  0.66557817  0.20337085  0.74828684    -0.12780
C921        C  0.69114399  0.21174950  0.74377791     0.00870
C922        C  0.70609847  0.19684563  0.72566479    -0.11310
C923        C  0.69633297  0.17360738  0.71448953     0.03360
C924        C  0.67228075  0.16442829  0.72245829    -0.10730
H925        H  0.65205715  0.21475276  0.75923330     0.08950
H926        H  0.72531039  0.20306828  0.72032029     0.06480
H927        H  0.66542351  0.14562914  0.71552256     0.06330
O928        O  0.72421058  0.99492041  0.60806579    -0.75050
O929        O  0.74185326  0.01672942  0.64285611    -0.53960
C930        C  0.72754015  0.99857548  0.63286187     0.78670
O931        O  0.82862432  0.98890722  0.53606195    -0.59650
O932        O  0.81495084  0.01530079  0.50253089    -0.52680
C933        C  0.82703055  0.99495626  0.51140444     0.70690
O934        O  0.82179161  0.99131259  0.62502821    -0.74210
O935        O  0.79623136  0.01509091  0.65278984    -0.54780
C936        C  0.81281403  0.99683273  0.64797570     0.76690
O937        O  0.73295249  0.99936712  0.52099036    -0.59360
O938        O  0.76075984  0.02150845  0.49499552    -0.52480
C939        C  0.74277150  0.00465839  0.49840859     0.73280
Zr940      Zr  0.73893643  0.01301155  0.56684718     2.54710
O941        O  0.73349326  0.96633249  0.56065113    -0.79920
O942        O  0.69261809  0.02140369  0.56228206    -0.93340
Zr943      Zr  0.81505637  0.00494030  0.57919541     2.64680
O944        O  0.80635675  0.95837066  0.58297933    -0.98290
O945        O  0.86181247  0.99974985  0.58358811    -0.80360
O946        O  0.77343163  0.00842274  0.59800807    -0.83710
O947        O  0.78043562  0.00841302  0.54835341    -2.18420
O948        O  0.74190141  0.10479911  0.52297463    -0.67100
O949        O  0.76604630  0.07922367  0.49617610    -0.51670
C950        C  0.75096289  0.09876591  0.50011713     0.71670
O951        O  0.80961152  0.10167729  0.62131074    -0.60010
O952        O  0.80240406  0.07171019  0.65248311    -0.51990
C953        C  0.81213139  0.09344016  0.64518931     0.73470
O954        O  0.83347609  0.10000450  0.53689801    -0.71410
O955        O  0.81919471  0.07422644  0.50326653    -0.50080
C956        C  0.83075266  0.09446080  0.51218014     0.74850
O957        O  0.73598621  0.10817718  0.61185526    -0.66740
O958        O  0.74807731  0.08098053  0.64552601    -0.53930
C959        C  0.73757616  0.10221659  0.63651557     0.73230
Zr960      Zr  0.74536244  0.08920677  0.56878651     2.77540
O961        O  0.74475888  0.13683537  0.56754213    -0.97490
O962        O  0.69833634  0.08789326  0.56504642    -0.78310
Zr963      Zr  0.82165116  0.08139579  0.57984164     2.70070
O964        O  0.84463655  0.12270166  0.58274466    -0.79550
O965        O  0.86532322  0.06847420  0.59330921    -0.98640
Zr966      Zr  0.77356146  0.04661199  0.62453363     2.21500
Zr967      Zr  0.78741739  0.04725847  0.52403074     2.11130
O968        O  0.78674117  0.08624713  0.54951200    -2.47320
O969        O  0.78025949  0.08531693  0.59923849    -0.79350
O970        O  0.74503737  0.05140294  0.54176355    -0.71540
O971        O  0.81573694  0.04314450  0.60542161    -2.32500
O972        O  0.73789952  0.05086033  0.59403454    -2.28710
O973        O  0.82324899  0.04312549  0.55385467    -0.73300
H974        H  0.78038217  0.99327396  0.53703018     0.78700
H975        H  0.82905702  0.04192483  0.61892648     0.79780
H976        H  0.78839872  0.10186363  0.53900152     0.82010
H977        H  0.72169721  0.05219190  0.60331087     0.79620
H978        H  0.86677381  0.01158852  0.59819888     0.42650
H979        H  0.87670424  0.07677315  0.58015637     0.41620
H980        H  0.83110871  0.13619948  0.57956221     0.41300
H981        H  0.75971920  0.14172499  0.55655380     0.39230
H982        H  0.69492876  0.08006694  0.54750057     0.42360
H983        H  0.68689721  0.02614643  0.58024188     0.37150
H984        H  0.75123159  0.95947965  0.55787386     0.43270
H985        H  0.80280516  0.95239600  0.56473244     0.39680
H986        H  0.72931779  0.14161635  0.55675191     0.44600
H987        H  0.68504328  0.00394557  0.55913070     0.43320
H988        H  0.82320043  0.95029828  0.58795238     0.43460
H989        H  0.86859223  0.07827577  0.60983688     0.43820
C990        C  0.85363493  0.21894507  0.41752109     0.03370
C991        C  0.84438129  0.19375987  0.42377452    -0.12780
C992        C  0.85638096  0.17914925  0.44411640     0.00870
C993        C  0.87857176  0.18850495  0.45644696    -0.11310
C994        C  0.88749985  0.21353026  0.45136907     0.03360
C995        C  0.87513187  0.22890552  0.43176762    -0.10730
H996        H  0.82738359  0.18611920  0.41381841     0.08950
H997        H  0.88749065  0.17713976  0.47230168     0.06480
H998        H  0.88156451  0.24869008  0.42819313     0.06330
C999        C  0.89040627  0.20824238  0.70808330     0.03370
C1000       C  0.87074645  0.22432748  0.71915677    -0.12780
C1001       C  0.84766517  0.21366153  0.72919327     0.00870
C1002       C  0.84214250  0.18742639  0.72468267    -0.11310
C1003       C  0.86000577  0.17174119  0.71161292     0.03360
C1004       C  0.88505892  0.18106685  0.70728476    -0.10730
H1005       H  0.87237957  0.24522515  0.71937646     0.08950
H1006       H  0.82307012  0.17995624  0.72913596     0.06480
H1007       H  0.89865557  0.16692624  0.69993059     0.06330
C1008       C  0.37516206  0.21907819  0.73864278     0.03370
C1009       C  0.39924490  0.20943085  0.74808849    -0.12780
C1010       C  0.41674191  0.19719708  0.73062826     0.00870
C1011       C  0.41023552  0.19709351  0.70366298    -0.11310
C1012       C  0.38429821  0.19977292  0.69580122     0.03360
C1013       C  0.36689854  0.21210269  0.71300782    -0.10730
H1014       H  0.40369108  0.21081254  0.76892287     0.08950
H1015       H  0.42365358  0.18860202  0.68972519     0.06480
H1016       H  0.34691441  0.21525029  0.70699967     0.06330
C1017       C  0.30497412  0.32022232  0.83610303     0.02520
C1018       C  0.28331168  0.33180055  0.82284888     0.02520
C1019       C  0.27533820  0.32227958  0.79779213     0.02520
C1020       C  0.28719902  0.29940268  0.78757416     0.02520
C1021       C  0.30870299  0.28754623  0.80079771     0.02520
C1022       C  0.31702415  0.29745317  0.82563377     0.02520
O1023       O  0.26766443  0.00754628  0.51400228    -0.75050
O1024       O  0.28303501  0.97632402  0.54255729    -0.53960
C1025       C  0.27075306  0.98369039  0.52150096     0.78670
O1026       O  0.36201582  0.08907178  0.51750204    -0.59650
O1027       O  0.34312875  0.12201122  0.54071668    -0.52680
C1028       C  0.35636625  0.11323057  0.52127535     0.70690
O1029       O  0.35150089  0.00396305  0.51589830    -0.74210
O1030       O  0.33431963  0.97234346  0.54185855    -0.54780
C1031       C  0.34492974  0.98020301  0.52049736     0.76690
O1032       O  0.26543378  0.09477302  0.51811921    -0.59360
O1033       O  0.28761750  0.12481142  0.54225692    -0.52480
C1034       C  0.27142162  0.11852244  0.52382937     0.73280
Zr1035     Zr  0.27566495  0.05048004  0.53318001     2.54710
O1036       O  0.27045730  0.05302576  0.48543689    -0.79920
O1037       O  0.22899028  0.04870768  0.53932789    -0.93340
Zr1038     Zr  0.35357515  0.04657387  0.53667937     2.64680
O1039       O  0.37223443  0.04276408  0.49281253    -0.98290
O1040       O  0.39881910  0.04151772  0.54992227    -0.80360
O1041       O  0.31360652  0.02431850  0.53455985    -0.83710
O1042       O  0.31554024  0.07310477  0.53323771    -2.18420
O1043       O  0.26597117  0.09629631  0.62463957    -0.67100
O1044       O  0.29004871  0.12525170  0.60174867    -0.51670
C1045       C  0.27369446  0.11965024  0.61970761     0.71670
O1046       O  0.35596534  0.00340304  0.63145861    -0.60010
O1047       O  0.33610507  0.97315302  0.60526612    -0.51990
C1048       C  0.34911026  0.97979211  0.62596998     0.73470
O1049       O  0.36160070  0.09225094  0.62902606    -0.71410
O1050       O  0.34310602  0.12338583  0.60275681    -0.50080
C1051       C  0.35681416  0.11634572  0.62300409     0.74850
O1052       O  0.26626646  0.00921197  0.63090137    -0.66740
O1053       O  0.28405558  0.97742323  0.60513126    -0.53930
C1054       C  0.27061266  0.98521961  0.62483083     0.73230
Zr1055     Zr  0.27424516  0.05157416  0.61059322     2.77540
O1056       O  0.26763994  0.05308852  0.65815466    -0.97490
O1057       O  0.22764244  0.05117937  0.60277534    -0.78310
Zr1058     Zr  0.35132313  0.04785990  0.61348407     2.70070
O1059       O  0.34814432  0.04807507  0.66108598    -0.79550
O1060       O  0.39838347  0.04460788  0.61432365    -0.98640
Zr1061     Zr  0.31145288  0.99890881  0.57358776     2.21500
Zr1062     Zr  0.31580043  0.09947102  0.57195729     2.11130
O1063       O  0.31380480  0.07458413  0.61174247    -2.47320
O1064       O  0.31176750  0.02497148  0.61217770    -0.79350
O1065       O  0.27535409  0.07711685  0.57140689    -0.71540
O1066       O  0.35227535  0.02078635  0.57539127    -2.32500
O1067       O  0.27291821  0.02497093  0.57226429    -2.28710
O1068       O  0.35447254  0.07355231  0.57451359    -0.73300
H1069       H  0.31546854  0.08347816  0.51730307     0.78700
H1070       H  0.36652478  0.00845493  0.57614182     0.79780
H1071       H  0.31383630  0.08565091  0.62713520     0.82010
H1072       H  0.25761219  0.01422391  0.57208487     0.79620
H1073       H  0.40553959  0.05958983  0.55044472     0.42650
H1074       H  0.40432263  0.06204565  0.60854005     0.41620
H1075       H  0.32945250  0.05074005  0.66442634     0.41300
H1076       H  0.28000473  0.06627999  0.66486846     0.39230
H1077       H  0.22344741  0.06905652  0.59645858     0.42360
H1078       H  0.22243933  0.03860178  0.52403320     0.37150
H1079       H  0.28839620  0.05279615  0.47871806     0.43270
H1080       H  0.36018241  0.05240222  0.48088517     0.39680
H1081       H  0.25032093  0.06116850  0.66036988     0.44600
H1082       H  0.22281780  0.06679139  0.53600246     0.43320
H1083       H  0.38822563  0.05333906  0.49326575     0.43460
H1084       H  0.40300960  0.04376857  0.63333380     0.43820
O1085       O  0.98003409  0.33851397  0.52237731    -0.75050
O1086       O  0.95122423  0.31518362  0.54672204    -0.53960
C1087       C  0.95696152  0.33110458  0.52787400     0.78670
O1088       O  0.07438440  0.24593059  0.52393005    -0.59650
O1089       O  0.10179612  0.27103182  0.54803049    -0.52680
C1090       C  0.09720441  0.25492589  0.52937895     0.70690
O1091       O  0.98732139  0.24039832  0.52432072    -0.74210
O1092       O  0.95570541  0.25957770  0.54867286    -0.54780
C1093       C  0.96342016  0.24496410  0.52960249     0.76690
O1094       O  0.06722068  0.33972280  0.52041617    -0.59360
O1095       O  0.09874571  0.32197633  0.54690803    -0.52480
C1096       C  0.09109841  0.33486451  0.52657689     0.73280
Zr1097     Zr  0.02418671  0.33039110  0.53789313     2.54710
O1098       O  0.02181242  0.33341163  0.48997298    -0.79920
O1099       O  0.02337543  0.37780154  0.54174244    -0.93340
Zr1100     Zr  0.02993845  0.25173108  0.54129446     2.64680
O1101       O  0.02816143  0.24207399  0.49422013    -0.98290
O1102       O  0.03368087  0.20522755  0.55095743    -0.80360
O1103       O  0.00259940  0.28952553  0.53933901    -0.83710
O1104       O  0.05069390  0.29252706  0.53843526    -2.18420
O1105       O  0.07044804  0.34677866  0.62801834    -0.67100
O1106       O  0.10078814  0.32504742  0.60427036    -0.51670
C1107       C  0.09417865  0.34163523  0.62185602     0.71670
O1108       O  0.98833026  0.24777848  0.63860223    -0.60010
O1109       O  0.95560217  0.26461215  0.61291174    -0.51990
C1110       C  0.96423003  0.25194880  0.63331532     0.73470
O1111       O  0.07506600  0.24935025  0.63550523    -0.71410
O1112       O  0.10207074  0.27041302  0.60784331    -0.50080
C1113       C  0.09786104  0.25609906  0.62815626     0.74850
O1114       O  0.98189224  0.34037550  0.63138519    -0.66740
O1115       O  0.95221503  0.31747660  0.60708508    -0.53930
C1116       C  0.95859428  0.33316864  0.62580816     0.73230
Zr1117     Zr  0.02597392  0.33346089  0.61569049     2.77540
O1118       O  0.02847357  0.33601171  0.66364078    -0.97490
O1119       O  0.02134369  0.38067622  0.61171663    -0.78310
Zr1120     Zr  0.03052592  0.25547265  0.61906308     2.70070
O1121       O  0.03058771  0.25099120  0.66686161    -0.79550
O1122       O  0.03225284  0.20814307  0.61474549    -0.98640
Zr1123     Zr  0.97750736  0.28979417  0.57847943     2.21500
Zr1124     Zr  0.07574532  0.29565927  0.57783342     2.11130
O1125       O  0.05259588  0.29587265  0.61798471    -2.47320
O1126       O  0.00365253  0.29312641  0.61732580    -0.79350
O1127       O  0.05033124  0.33455755  0.57638069    -0.71540
O1128       O  0.00435165  0.25139920  0.58029403    -2.32500
O1129       O  0.99945398  0.33082949  0.57701518    -2.28710
O1130       O  0.05579203  0.25402624  0.58015508    -0.73300
H1131       H  0.06107132  0.29249331  0.52273028     0.78700
H1132       H  0.99394202  0.23580248  0.58116893     0.79780
H1133       H  0.06399877  0.29727406  0.63314218     0.82010
H1134       H  0.98720416  0.34518474  0.57654909     0.79620
H1135       H  0.01558181  0.19895778  0.55123697     0.42650
H1136       H  0.04927306  0.20455016  0.60665450     0.41620
H1137       H  0.03034094  0.26920494  0.67342469     0.41300
H1138       H  0.04384615  0.32541934  0.66877798     0.39230
H1139       H  0.03383195  0.38562858  0.59791950     0.42360
H1140       H  0.00545596  0.38210957  0.54706620     0.37150
H1141       H  0.02413213  0.31517446  0.48389930     0.43270
H1142       H  0.03882686  0.25571941  0.48582205     0.39680
H1143       H  0.03347400  0.35426628  0.66744496     0.44600
H1144       H  0.02448738  0.38416690  0.52331797     0.43320
H1145       H  0.03822103  0.22567710  0.49215346     0.43460
H1146       H  0.03420318  0.20169310  0.63310992     0.43820
C1147       C  0.21839149  0.19705644  0.45951272     0.03370
C1148       C  0.22977216  0.21154049  0.43908624    -0.12780
C1149       C  0.21800956  0.23468094  0.42947849     0.00870
C1150       C  0.19462628  0.24336157  0.44093516    -0.11310
C1151       C  0.18297348  0.22861260  0.46108657     0.03360
C1152       C  0.19504932  0.20572168  0.47012560    -0.10730
H1153       H  0.24827666  0.20530686  0.43130050     0.08950
H1154       H  0.18625277  0.26200372  0.43515933     0.06480
H1155       H  0.18687062  0.19531786  0.48671475     0.06330
C1156       C  0.19723956  0.37733028  0.73368626     0.03370
C1157       C  0.18810317  0.40162902  0.74281279    -0.12780
C1158       C  0.17323185  0.41758754  0.72589969     0.00870
C1159       C  0.17072475  0.41087159  0.69942822    -0.11310
C1160       C  0.17337755  0.38466205  0.69179430     0.03360
C1161       C  0.18792376  0.36800462  0.70903036    -0.10730
H1162       H  0.19167567  0.40751796  0.76305384     0.08950
H1163       H  0.16190424  0.42510167  0.68621050     0.06480
H1164       H  0.19162374  0.34791705  0.70400786     0.06330
C1165       C  0.19182038  0.22834941  0.68518689     0.03370
C1166       C  0.20423453  0.24418026  0.70392620    -0.12780
C1167       C  0.22888175  0.23707678  0.71363703     0.00870
C1168       C  0.24114614  0.21453572  0.70412726    -0.11310
C1169       C  0.22845711  0.19875283  0.68566157     0.03360
C1170       C  0.20368498  0.20542219  0.67666536    -0.10730
H1171       H  0.19524913  0.26232714  0.71011899     0.08950
H1172       H  0.26073291  0.20971946  0.71048635     0.06480
H1173       H  0.19443764  0.19378699  0.66140016     0.06330
C1174       C  0.70141244  0.21674412  0.23303950     0.03370
C1175       C  0.69327241  0.19292489  0.24458618    -0.12780
C1176       C  0.67578519  0.17651987  0.23103820     0.00870
C1177       C  0.66760197  0.18369063  0.20567897    -0.11310
C1178       C  0.67119283  0.20893449  0.19646008     0.03360
C1179       C  0.68924094  0.22501764  0.20929057    -0.10730
H1180       H  0.70041680  0.18734927  0.26388632     0.08950
H1181       H  0.65528445  0.17078047  0.19435022     0.06480
H1182       H  0.69342997  0.24392047  0.20081725     0.06330
C1183       C  0.20675991  0.66937758  0.22109224     0.03370
C1184       C  0.22306180  0.68347948  0.23817896    -0.12780
C1185       C  0.21362160  0.69291201  0.26240591     0.00870
C1186       C  0.18814777  0.68622199  0.27013593    -0.11310
C1187       C  0.17191506  0.67200110  0.25271664     0.03360
C1188       C  0.18062325  0.66708208  0.22723463    -0.10730
H1189       H  0.24287477  0.68729330  0.23263376     0.08950
H1190       H  0.18127205  0.69171696  0.28946351     0.06480
H1191       H  0.16757058  0.65813887  0.21311116     0.06330
C1192       C  0.35607465  0.41393310  0.20033795     0.03370
C1193       C  0.37248922  0.39988578  0.18356120    -0.12780
C1194       C  0.38133743  0.37474612  0.19001665     0.00870
C1195       C  0.37102113  0.36198652  0.21189429    -0.11310
C1196       C  0.35181146  0.37419647  0.22683912     0.03360
C1197       C  0.34503541  0.40042840  0.22174276    -0.10730
H1198       H  0.37924853  0.40876985  0.16554506     0.08950
H1199       H  0.37780280  0.34270464  0.21747616     0.06480
H1200       H  0.33104496  0.40987733  0.23432713     0.06330
C1201       C  0.37143493  0.17602561  0.42904901     0.03370
C1202       C  0.39285041  0.16709313  0.41513641    -0.12780
C1203       C  0.39958584  0.17797620  0.39070462     0.00870
C1204       C  0.38491893  0.19922134  0.38123927    -0.11310
C1205       C  0.36249522  0.20739154  0.39431284     0.03360
C1206       C  0.35577772  0.19590687  0.41842139    -0.10730
H1207       H  0.40347581  0.15040446  0.42300572     0.08950
H1208       H  0.39019067  0.20928377  0.36350863     0.06480
H1209       H  0.33831616  0.20196786  0.42845435     0.06330
C1210       C  0.16103245  0.36780794  0.44707501     0.03370
C1211       C  0.15286038  0.39299709  0.44032755    -0.12780
C1212       C  0.16142934  0.40475438  0.41728153     0.00870
C1213       C  0.18023862  0.39215990  0.40205803    -0.11310
C1214       C  0.18988397  0.36727292  0.40939386     0.03360
C1215       C  0.17948707  0.35482310  0.43166116    -0.10730
H1216       H  0.13741972  0.40221422  0.45139479     0.08950
H1217       H  0.18653285  0.40141360  0.38402219     0.06480
H1218       H  0.18481317  0.33485037  0.43635688     0.06330
C1219       C  0.29517155  0.31310507  0.30272679     0.02520
C1220       C  0.27364517  0.32582633  0.31461919     0.02520
C1221       C  0.26630692  0.31895240  0.34111605     0.02520
C1222       C  0.27693656  0.29510435  0.35216983     0.02520
C1223       C  0.29716336  0.28146200  0.33869423     0.02520
C1224       C  0.30615616  0.29023186  0.31385946     0.02520
C1225       C  0.20680543  0.35424830  0.36536832    -0.05540
C1226       C  0.21009583  0.35435542  0.39305721     0.00380
C1227       C  0.23481475  0.34719168  0.40356773    -0.08190
C1228       C  0.25340915  0.33698670  0.38607438    -0.05560
C1229       C  0.24898529  0.33615542  0.35856117     0.00370
C1230       C  0.22903810  0.35323823  0.34965378    -0.08100
C1231       C  0.23681156  0.38064355  0.34102774     0.62280
H1232       H  0.18935130  0.36289930  0.35693027     0.12980
H1233       H  0.27162692  0.33030935  0.39377680     0.12990
C1234       C  0.24211663  0.35114663  0.43242339     0.62520
F1235       F  0.22421604  0.38711202  0.31780127    -0.22650
F1236       F  0.22984301  0.39918593  0.35960977    -0.19980
F1237       F  0.26333774  0.38273143  0.33837118    -0.19660
F1238       F  0.23038517  0.33242338  0.44781867    -0.19710
F1239       F  0.23456260  0.37577078  0.44066393    -0.20030
F1240       F  0.26861191  0.34919681  0.43644815    -0.22700
C1241       C  0.32261401  0.21742023  0.36865392    -0.05540
C1242       C  0.34518279  0.22650712  0.38128609     0.00380
C1243       C  0.35169159  0.25313151  0.37986081    -0.08190
C1244       C  0.33542789  0.26984341  0.36531935    -0.05560
C1245       C  0.31270319  0.26113340  0.35277292     0.00370
C1246       C  0.30617638  0.23432161  0.35413897    -0.08100
C1247       C  0.28279923  0.22233893  0.34055083     0.62280
H1248       H  0.31808490  0.19677871  0.36971624     0.12980
H1249       H  0.33984835  0.29036529  0.36464733     0.12990
C1250       C  0.37499077  0.26406128  0.39465885     0.62520
F1251       F  0.26698050  0.21132870  0.35935913    -0.22650
F1252       F  0.26830198  0.24014357  0.32604558    -0.19980
F1253       F  0.29104262  0.20292468  0.32357952    -0.19660
F1254       F  0.39763498  0.25398906  0.38442879    -0.19710
F1255       F  0.37355313  0.25745870  0.42109755    -0.20030
F1256       F  0.37609982  0.29103530  0.39285425    -0.22700
C1257       C  0.31903141  0.34095401  0.23713914    -0.05540
C1258       C  0.33765129  0.35864604  0.24647315     0.00380
C1259       C  0.34275043  0.36057924  0.27377620    -0.08190
C1260       C  0.32839360  0.34503922  0.29103130    -0.05560
C1261       C  0.30984115  0.32709080  0.28188790     0.00370
C1262       C  0.30478170  0.32515781  0.25438063    -0.08100
C1263       C  0.28433842  0.30778651  0.24202581     0.62280
H1264       H  0.31538082  0.33969544  0.21604662     0.12980
H1265       H  0.33076896  0.34760472  0.31211453     0.12990
C1266       C  0.36342720  0.37872295  0.28455893     0.62520
F1267       F  0.29603219  0.29068249  0.22466084    -0.22650
F1268       F  0.26667137  0.32314677  0.22817580    -0.19980
F1269       F  0.27092877  0.29333693  0.26025181    -0.19660
F1270       F  0.35684433  0.40437098  0.27892347    -0.19710
F1271       F  0.38696318  0.37285809  0.27313870    -0.20030
F1272       F  0.36638267  0.37630221  0.31166194    -0.22700
C1273       C  0.25609841  0.26146379  0.41740471    -0.05540
C1274       C  0.23211254  0.25101752  0.40981260     0.00380
C1275       C  0.22308691  0.25516725  0.38364831    -0.08190
C1276       C  0.23812079  0.27032983  0.36631158    -0.05560
C1277       C  0.26231290  0.28085974  0.37368346     0.00370
C1278       C  0.27128285  0.27651265  0.40016237    -0.08100
C1279       C  0.29584311  0.28762483  0.41224201     0.62280
H1280       H  0.26299696  0.25802008  0.43743570     0.12980
H1281       H  0.23120798  0.27361283  0.34638737     0.12990
C1282       C  0.19827711  0.24265524  0.37367414     0.62520
F1283       F  0.28976572  0.30108462  0.43500317    -0.22650
F1284       F  0.30844950  0.30468093  0.39576177    -0.19980
F1285       F  0.31242858  0.26734790  0.41909164    -0.19660
F1286       F  0.17728244  0.25335026  0.38648104    -0.19710
F1287       F  0.19917090  0.21601053  0.37834496    -0.20030
F1288       F  0.19459850  0.24648221  0.34681763    -0.22700
C1289       C  0.13966417  0.34171334  0.63940017    -0.05540
C1290       C  0.11557182  0.35471825  0.63661790     0.00380
C1291       C  0.11272905  0.37968550  0.64797520    -0.08190
C1292       C  0.13199517  0.38840567  0.66542276    -0.05560
C1293       C  0.15585273  0.37499623  0.66966637     0.00370
C1294       C  0.16040809  0.35230850  0.65422817    -0.08100
C1295       C  0.18662289  0.33912696  0.65186455     0.62280
H1296       H  0.14255080  0.32314465  0.62956168     0.12980
H1297       H  0.12737536  0.40566846  0.67654117     0.12990
C1298       C  0.08983436  0.39760851  0.64167204     0.62520
F1299       F  0.19051885  0.33138412  0.62603057    -0.22650
F1300       F  0.18741604  0.31726097  0.66790421    -0.19980
F1301       F  0.20666897  0.35573649  0.65853921    -0.19660
F1302       F  0.06826819  0.38959487  0.65531703    -0.19710
F1303       F  0.08457795  0.39740518  0.61481459    -0.20030
F1304       F  0.09492628  0.42322968  0.64868853    -0.22700
C1305       C  0.15150017  0.36140437  0.49407988    -0.05540
C1306       C  0.14640328  0.35449244  0.46775891     0.00380
C1307       C  0.12381641  0.34035871  0.46113176    -0.08190
C1308       C  0.10639632  0.33440736  0.48119144    -0.05560
C1309       C  0.11089153  0.34215802  0.50735900     0.00370
C1310       C  0.13411059  0.35520022  0.51429248    -0.08100
C1311       C  0.13992333  0.36357064  0.54249528     0.62280
H1312       H  0.16871419  0.37267456  0.49841819     0.12980
H1313       H  0.08886388  0.32374657  0.47654979     0.12990
C1314       C  0.11770360  0.33246204  0.43282918     0.62520
F1315       F  0.16176788  0.37906236  0.54408721    -0.22650
F1316       F  0.14421411  0.34181022  0.55821234    -0.19980
F1317       F  0.11926036  0.37776508  0.55227192    -0.19660
F1318       F  0.13734077  0.31664529  0.42344147    -0.19710
F1319       F  0.11541222  0.35443059  0.41699448    -0.20030
F1320       F  0.09473743  0.31874316  0.43086818    -0.22700
C1321       C  0.14550281  0.25699779  0.63487953    -0.05540
C1322       C  0.12131078  0.24805154  0.64398833     0.00380
C1323       C  0.12082173  0.23256775  0.66749689    -0.08190
C1324       C  0.14430666  0.22769615  0.68112159    -0.05560
C1325       C  0.16791677  0.23681630  0.67169923     0.00370
C1326       C  0.16883102  0.25104276  0.64790601    -0.08100
C1327       C  0.19448246  0.25872629  0.63561766     0.62280
H1328       H  0.14636983  0.26834724  0.61688522     0.12980
H1329       H  0.14463424  0.21612509  0.69906014     0.12990
C1330       C  0.09618050  0.22084578  0.67840245     0.62520
F1331       F  0.19096749  0.27410006  0.61331686    -0.22650
F1332       F  0.20793592  0.23648714  0.62832895    -0.19980
F1333       F  0.20936949  0.27258366  0.65349844    -0.19660
F1334       F  0.08436859  0.20542701  0.65943328    -0.19710
F1335       F  0.07959640  0.24063104  0.68608540    -0.20030
F1336       F  0.10099964  0.20517515  0.70026873    -0.22700
C1337       C  0.11448218  0.24014218  0.48597857    -0.05540
C1338       C  0.11960561  0.24786624  0.51221921     0.00380
C1339       C  0.14598519  0.25039488  0.52072694    -0.08190
C1340       C  0.16575629  0.24605844  0.50239454    -0.05560
C1341       C  0.16054694  0.23820863  0.47644981     0.00370
C1342       C  0.13458594  0.23482470  0.46806205    -0.08100
C1343       C  0.12832038  0.22514336  0.44048335     0.62280
H1344       H  0.09452346  0.23835659  0.47948082     0.12980
H1345       H  0.18586755  0.24786150  0.50844075     0.12990
C1346       C  0.15389145  0.25666031  0.54910755     0.62520
F1347       F  0.10191454  0.22246909  0.43634784    -0.22650
F1348       F  0.13991560  0.20103693  0.43654865    -0.19980
F1349       F  0.13749976  0.24270463  0.42212792    -0.19660
F1350       F  0.14045019  0.24098940  0.56645875    -0.19710
F1351       F  0.14898987  0.28270803  0.55445538    -0.20030
F1352       F  0.18005121  0.25220000  0.55370634    -0.22700
C1353       C  0.23397045  0.13380716  0.49642194    -0.05540
C1354       C  0.25837028  0.13953772  0.50764154     0.00380
C1355       C  0.26995379  0.16393497  0.50131495    -0.08190
C1356       C  0.25672044  0.18135919  0.48429605    -0.05560
C1357       C  0.23253783  0.17542516  0.47312076     0.00370
C1358       C  0.22112015  0.15093936  0.47883652    -0.08100
C1359       C  0.19558314  0.14179286  0.46697916     0.62280
H1360       H  0.22484620  0.11536698  0.50109919     0.12980
H1361       H  0.26488060  0.20036355  0.48016882     0.12990
C1362       C  0.29658530  0.17139518  0.51129039     0.62520
F1363       F  0.19827352  0.11639167  0.45804488    -0.22650
F1364       F  0.18735455  0.15685993  0.44576663    -0.19980
F1365       F  0.17677895  0.14233944  0.48620556    -0.19660
F1366       F  0.31357707  0.15187327  0.50467929    -0.19710
F1367       F  0.29646977  0.17460439  0.53834903    -0.20030
F1368       F  0.30535833  0.19436508  0.50008913    -0.22700
C1369       C  0.24920761  0.13334156  0.65924884    -0.05540
C1370       C  0.26353839  0.14095773  0.63690595     0.00380
C1371       C  0.26785335  0.16815819  0.63239616    -0.08190
C1372       C  0.25735623  0.18621623  0.65017166    -0.05560
C1373       C  0.24245008  0.17828591  0.67152047     0.00370
C1374       C  0.23827666  0.15162803  0.67644259    -0.08100
C1375       C  0.22213775  0.14275138  0.69964650     0.62280
H1376       H  0.24614097  0.11281625  0.66314885     0.12980
H1377       H  0.25974942  0.20700939  0.64701965     0.12990
C1378       C  0.28249422  0.17870525  0.60880679     0.62520
F1379       F  0.22168604  0.11579259  0.70194028    -0.22650
F1380       F  0.19689208  0.15151523  0.69650658    -0.19980
F1381       F  0.23236071  0.15283753  0.72280330    -0.19660
F1382       F  0.27095692  0.17004924  0.58569818    -0.19710
F1383       F  0.30802255  0.17054795  0.61006078    -0.20030
F1384       F  0.28251939  0.20576320  0.60799125    -0.22700
C1385       C  0.35213193  0.12169007  0.47428282    -0.05540
C1386       C  0.36141143  0.13069960  0.49879627     0.00380
C1387       C  0.37177785  0.15615549  0.50088431    -0.08190
C1388       C  0.37372531  0.17127586  0.47767132    -0.05560
C1389       C  0.36464465  0.16188235  0.45323571     0.00370
C1390       C  0.35306117  0.13705143  0.45152283    -0.08100
C1391       C  0.34154559  0.12692339  0.42574941     0.62280
H1392       H  0.34329695  0.10256627  0.47324247     0.12980
H1393       H  0.38270345  0.19033798  0.47827945     0.12990
C1394       C  0.38112715  0.16693323  0.52714831     0.62520
F1395       F  0.32890218  0.10340025  0.42917602    -0.22650
F1396       F  0.36081869  0.12305026  0.40743250    -0.19980
F1397       F  0.32375920  0.14485910  0.41584448    -0.19660
F1398       F  0.39858958  0.14965463  0.53873400    -0.19710
F1399       F  0.36034378  0.17052750  0.54375355    -0.20030
F1400       F  0.39329628  0.19077046  0.52418460    -0.22700
C1401       C  0.25279811  0.26859859  0.77656249    -0.05540
C1402       C  0.27293849  0.28429145  0.76718152     0.00380
C1403       C  0.27781913  0.28531084  0.73971961    -0.08190
C1404       C  0.26286142  0.26959546  0.72280751    -0.05560
C1405       C  0.24283607  0.25394560  0.73238718     0.00370
C1406       C  0.23741841  0.25353842  0.75959613    -0.08100
C1407       C  0.21569788  0.23706081  0.77063033     0.62280
H1408       H  0.24894339  0.26858419  0.79752153     0.12980
H1409       H  0.26669510  0.26967457  0.70179500     0.12990
C1410       C  0.29797186  0.30246971  0.72701132     0.62520
F1411       F  0.21453236  0.23864195  0.79787653    -0.22650
F1412       F  0.21947793  0.21113886  0.76393720    -0.19980
F1413       F  0.19219123  0.24559742  0.76036547    -0.19660
F1414       F  0.31610555  0.28686121  0.71463021    -0.19710
F1415       F  0.31068341  0.31831180  0.74479081    -0.20030
F1416       F  0.28605107  0.31836198  0.70830513    -0.22700
C1417       C  0.22970372  0.32794508  0.78084413    -0.05540
C1418       C  0.25542347  0.33696698  0.78146162     0.00380
C1419       C  0.26166623  0.35937167  0.76613751    -0.08190
C1420       C  0.24205907  0.37152773  0.75079101    -0.05560
C1421       C  0.21654224  0.36227971  0.74996254     0.00370
C1422       C  0.21009209  0.34027245  0.76547784    -0.08100
C1423       C  0.18250498  0.33031787  0.76634227     0.62280
H1424       H  0.22500661  0.31101703  0.79254648     0.12980
H1425       H  0.24678365  0.38863888  0.73915674     0.12990
C1426       C  0.28839840  0.37157932  0.76483224     0.62520
F1427       F  0.17998178  0.30982642  0.78400221    -0.22650
F1428       F  0.17495191  0.32154826  0.74167570    -0.19980
F1429       F  0.16607070  0.35026486  0.77406615    -0.19660
F1430       F  0.29645390  0.37185030  0.73887684    -0.19710
F1431       F  0.30704432  0.35863343  0.77970705    -0.20030
F1432       F  0.28694816  0.39708686  0.77369664    -0.22700
C1433       C  0.34523848  0.27896781  0.77091863    -0.05540
C1434       C  0.32541296  0.26828029  0.78624604     0.00380
C1435       C  0.32217779  0.24067459  0.78625164    -0.08190
C1436       C  0.33881943  0.22507910  0.77068061    -0.05560
C1437       C  0.35858069  0.23606934  0.75546619     0.00370
C1438       C  0.36195845  0.26345384  0.75572128    -0.08100
C1439       C  0.38310605  0.27627070  0.73970549     0.62280
H1440       H  0.34737091  0.29994274  0.77062468     0.12980
H1441       H  0.33631272  0.20406273  0.77034503     0.12990
C1442       C  0.30176117  0.22648415  0.80191419     0.62520
F1443       F  0.38293138  0.30319189  0.74237257    -0.22650
F1444       F  0.37970128  0.27049111  0.71324182    -0.19980
F1445       F  0.40706585  0.26709102  0.74810757    -0.19660
F1446       F  0.28578225  0.21291238  0.78473915    -0.19710
F1447       F  0.28654865  0.24297027  0.81671580    -0.20030
F1448       F  0.31377049  0.20888295  0.81891674    -0.22700
C1449       C  0.37788110  0.15399064  0.68485303    -0.05540
C1450       C  0.37522268  0.17993834  0.67651848     0.00380
C1451       C  0.36823927  0.18526047  0.65009910    -0.08190
C1452       C  0.36343926  0.16399686  0.63294768    -0.05560
C1453       C  0.36608015  0.13762040  0.64130978     0.00370
C1454       C  0.37509835  0.13281392  0.66765706    -0.08100
C1455       C  0.38156597  0.10586851  0.67858026     0.62280
H1456       H  0.38299060  0.15053487  0.70537103     0.12980
H1457       H  0.35764590  0.16798117  0.61274086     0.12990
C1458       C  0.36586042  0.21317735  0.64037382     0.62520
F1459       F  0.39331437  0.10689373  0.70328671    -0.22650
F1460       F  0.39862858  0.09300162  0.66213879    -0.19980
F1461       F  0.35896597  0.09202744  0.68116654    -0.19660
F1462       F  0.38930945  0.22573902  0.64370059    -0.19710
F1463       F  0.34712539  0.22617722  0.65466792    -0.20030
F1464       F  0.35894475  0.21438722  0.61391010    -0.22700
C1465       C  0.93493728  0.25671443  0.67193503    -0.05540
C1466       C  0.94559009  0.24071707  0.65233265     0.00380
C1467       C  0.94199525  0.21351432  0.65404271    -0.08190
C1468       C  0.92604756  0.20350092  0.67391875    -0.05560
C1469       C  0.91330032  0.21947653  0.69269902     0.00370
C1470       C  0.92096027  0.24627647  0.69336983    -0.08100
C1471       C  0.91885672  0.26355921  0.71760639     0.62280
H1472       H  0.93926359  0.27733820  0.67167565     0.12980
H1473       H  0.92387879  0.18274767  0.67417826     0.12990
C1474       C  0.95478853  0.19503488  0.63456305     0.62520
F1475       F  0.94227577  0.27584879  0.72220299    -0.22650
F1476       F  0.91350104  0.24937670  0.74016004    -0.19980
F1477       F  0.90004667  0.28256427  0.71345093    -0.19660
F1478       F  0.98135277  0.19556576  0.63807762    -0.19710
F1479       F  0.94866971  0.20266434  0.60904621    -0.20030
F1480       F  0.94681196  0.16944908  0.63773065    -0.22700
C1481       C  0.89963326  0.22523255  0.49680923    -0.05540
C1482       C  0.90704389  0.22364859  0.47023708     0.00380
C1483       C  0.93336981  0.22625755  0.46367690    -0.08190
C1484       C  0.95131341  0.23190101  0.48395686    -0.05560
C1485       C  0.94380663  0.23456044  0.51057165     0.00370
C1486       C  0.91761786  0.22984320  0.51726661    -0.08100
C1487       C  0.90860738  0.22858823  0.54570240     0.62280
H1488       H  0.87946560  0.22201171  0.50147145     0.12980
H1489       H  0.97132608  0.23524059  0.47887019     0.12990
C1490       C  0.94237126  0.22299187  0.43545484     0.62520
F1491       F  0.88447954  0.21710146  0.54758675    -0.22650
F1492       F  0.90684055  0.25340822  0.55624813    -0.19980
F1493       F  0.92585911  0.21373771  0.56056973    -0.19660
F1494       F  0.93073386  0.24176006  0.41953786    -0.19710
F1495       F  0.93573845  0.19845198  0.42631951    -0.20030
F1496       F  0.96895332  0.22559189  0.43341238    -0.22700
C1497       C  0.84003464  0.12760671  0.70706363    -0.05540
C1498       C  0.85006643  0.15014285  0.69511235     0.00380
C1499       C  0.84771235  0.15343043  0.66740164    -0.08190
C1500       C  0.83619947  0.13374925  0.65272196    -0.05560
C1501       C  0.82540947  0.11136263  0.66415790     0.00370
C1502       C  0.82774820  0.10783419  0.69201845    -0.08100
C1503       C  0.81772487  0.08366777  0.70596382     0.62280
H1504       H  0.84165962  0.12585955  0.72832814     0.12980
H1505       H  0.83556913  0.13618352  0.63158088     0.12990
C1506       C  0.85701482  0.17754067  0.65259024     0.62520
F1507       F  0.82227337  0.08459116  0.73294052    -0.22650
F1508       F  0.83003613  0.06163989  0.69632310    -0.19980
F1509       F  0.79130770  0.08148162  0.70198981    -0.19660
F1510       F  0.88356567  0.17650145  0.65065704    -0.19710
F1511       F  0.84951335  0.20019600  0.66523858    -0.20030
F1512       F  0.84703543  0.17890872  0.62712089    -0.22700
C1513       C  0.82667974  0.13972337  0.49799212    -0.05540
C1514       C  0.83723838  0.11500815  0.49296511     0.00380
C1515       C  0.85085380  0.11059859  0.46926039    -0.08190
C1516       C  0.85406105  0.13175310  0.45167887    -0.05560
C1517       C  0.84421562  0.15679782  0.45731474     0.00370
C1518       C  0.83012179  0.16080377  0.48089568    -0.08100
C1519       C  0.81952300  0.18696743  0.49021660     0.62280
H1520       H  0.81567631  0.14276485  0.51587583     0.12980
H1521       H  0.86568618  0.12934480  0.43417473     0.12990
C1522       C  0.86313171  0.08425139  0.46336615     0.62520
F1523       F  0.79308724  0.18492675  0.49381892    -0.22650
F1524       F  0.82367495  0.20725897  0.47292088    -0.19980
F1525       F  0.83111609  0.19330798  0.51410076    -0.19660
F1526       F  0.84414271  0.06581247  0.45893992    -0.19710
F1527       F  0.87849770  0.07641024  0.48453609    -0.20030
F1528       F  0.87853292  0.08523531  0.44119885    -0.22700
C1529       C  0.74029990  0.12441636  0.68026641    -0.05540
C1530       C  0.72728886  0.12164571  0.65582853     0.00380
C1531       C  0.70511939  0.13758620  0.65047022    -0.08190
C1532       C  0.69734620  0.15590633  0.66949748    -0.05560
C1533       C  0.71001539  0.15822477  0.69400908     0.00370
C1534       C  0.73176050  0.14211907  0.69971322    -0.08100
C1535       C  0.74520496  0.14290861  0.72651725     0.62280
H1536       H  0.75723774  0.11242770  0.68410414     0.12980
H1537       H  0.68039663  0.16804863  0.66585096     0.12990
C1538       C  0.68868881  0.13464844  0.62553487     0.62520
F1539       F  0.76471264  0.12431877  0.72866233    -0.22650
F1540       F  0.72748251  0.13815466  0.74621074    -0.19980
F1541       F  0.75616972  0.16716417  0.73044596    -0.19660
F1542       F  0.68297044  0.10858781  0.62140851    -0.19710
F1543       F  0.70181836  0.14443191  0.60409612    -0.20030
F1544       F  0.66540877  0.14812472  0.62718907    -0.22700
C1545       C  0.80030081  0.26759678  0.74793237    -0.05540
C1546       C  0.79878770  0.26420112  0.77548725     0.00380
C1547       C  0.81138560  0.24181184  0.78705810    -0.08190
C1548       C  0.82652832  0.22555039  0.77097901    -0.05560
C1549       C  0.82885190  0.22997072  0.74390310     0.00370
C1550       C  0.81355827  0.24960994  0.73177976    -0.08100
C1551       C  0.80996237  0.25013637  0.70203606     0.62280
H1552       H  0.79149337  0.28459945  0.73899786     0.12980
H1553       H  0.83742074  0.20952522  0.77987312     0.12990
C1554       C  0.81188219  0.23475234  0.81628350     0.62520
F1555       F  0.79167584  0.26851596  0.69419558    -0.22650
F1556       F  0.80151716  0.22587649  0.69361494    -0.19980
F1557       F  0.83302533  0.25585980  0.68984058    -0.19660
F1558       F  0.79940948  0.25247218  0.83201988    -0.19710
F1559       F  0.83730712  0.23304923  0.82517355    -0.20030
F1560       F  0.80038029  0.21067485  0.81969179    -0.22700
C1561       C  0.71516224  0.25965173  0.79755826    -0.05540
C1562       C  0.73849415  0.26731595  0.78615432     0.00380
C1563       C  0.73761592  0.26800372  0.75816904    -0.08190
C1564       C  0.72226513  0.24925467  0.74501777    -0.05560
C1565       C  0.70331186  0.23461857  0.75833687     0.00370
C1566       C  0.69780286  0.24253238  0.78493729    -0.08100
C1567       C  0.67412873  0.23464211  0.80068653     0.62280
H1568       H  0.71009062  0.26756012  0.81636965     0.12980
H1569       H  0.72311025  0.24810743  0.72368868     0.12990
C1570       C  0.73994581  0.29381966  0.74353648     0.62520
F1571       F  0.67539786  0.24310429  0.82660077    -0.22650
F1572       F  0.67198251  0.20785342  0.80166142    -0.19980
F1573       F  0.65214282  0.24600884  0.78968972    -0.19660
F1574       F  0.74894166  0.28979399  0.71825565    -0.19710
F1575       F  0.75588463  0.31137747  0.75624025    -0.20030
F1576       F  0.71559154  0.30517463  0.74159359    -0.22700
C1577       C  0.91829825  0.35063625  0.68528793    -0.05540
C1578       C  0.89726850  0.36354072  0.67332777     0.00380
C1579       C  0.89512352  0.36466732  0.64558963    -0.08190
C1580       C  0.91515145  0.35359534  0.63050005    -0.05560
C1581       C  0.93760778  0.34311394  0.64264689     0.00370
C1582       C  0.93921932  0.34149608  0.67058625    -0.08100
C1583       C  0.96353960  0.33245688  0.68526473     0.62280
H1584       H  0.91908914  0.34966677  0.70661387     0.12980
H1585       H  0.91401209  0.35418854  0.60914018     0.12990
C1586       C  0.87189999  0.37760461  0.63237111     0.62520
F1587       F  0.95893573  0.32800207  0.71176946    -0.22650
F1588       F  0.98200609  0.35176897  0.68353894    -0.19980
F1589       F  0.97319104  0.30955776  0.67468653    -0.19660
F1590       F  0.87103773  0.40380207  0.63896315    -0.19710
F1591       F  0.84947088  0.36571251  0.64081606    -0.20030
F1592       F  0.87284811  0.37564711  0.60514384    -0.22700
C1593       C  0.85278050  0.33659191  0.75753921    -0.05540
C1594       C  0.84113608  0.36026732  0.74978309     0.00380
C1595       C  0.81538351  0.36546578  0.75736985    -0.08190
C1596       C  0.80239837  0.34677315  0.77280407    -0.05560
C1597       C  0.81441513  0.32349729  0.78198322     0.00370
C1598       C  0.84033046  0.31835015  0.77385145    -0.08100
C1599       C  0.85620958  0.29442242  0.78101581     0.62280
H1600       H  0.87229703  0.33243151  0.75091515     0.12980
H1601       H  0.78254343  0.35049868  0.77840124     0.12990
C1602       C  0.80154271  0.39040147  0.74888090     0.62520
F1603       F  0.88062152  0.30180779  0.78962407    -0.22650
F1604       F  0.85902048  0.27905419  0.75882048    -0.19980
F1605       F  0.84527086  0.27999442  0.80075799    -0.19660
F1606       F  0.80150955  0.39244561  0.72165065    -0.19710
F1607       F  0.81403728  0.41174745  0.75962637    -0.20030
F1608       F  0.77607518  0.39099814  0.75717173    -0.22700
C1609       C  0.71283122  0.34882462  0.87146372    -0.05540
C1610       C  0.72515461  0.35689309  0.89476565     0.00380
C1611       C  0.75193388  0.35135847  0.89855485    -0.08190
C1612       C  0.76506788  0.33697027  0.87917763    -0.05560
C1613       C  0.75268435  0.32815410  0.85602301     0.00370
C1614       C  0.72641479  0.33581545  0.85137721    -0.08100
C1615       C  0.71199554  0.33203851  0.82539045     0.62280
H1616       H  0.69259384  0.35391958  0.86837385     0.12980
H1617       H  0.78515400  0.33184115  0.88248189     0.12990
C1618       C  0.76658856  0.35960713  0.92337129     0.62520
F1619       F  0.69931671  0.35501043  0.81844491    -0.22650
F1620       F  0.69377602  0.31261951  0.82832283    -0.19980
F1621       F  0.72812786  0.32580432  0.80478315    -0.19660
F1622       F  0.75268863  0.35301455  0.94556757    -0.19710
F1623       F  0.77060976  0.38625329  0.92297994    -0.20030
F1624       F  0.79061279  0.34751625  0.92539458    -0.22700
C1625       C  0.61120574  0.16588058  0.73808400    -0.05540
C1626       C  0.63494335  0.16607808  0.75199496     0.00380
C1627       C  0.63793076  0.15115221  0.77554485    -0.08190
C1628       C  0.61691378  0.13659776  0.78426955    -0.05560
C1629       C  0.59393736  0.13511078  0.76958832     0.00370
C1630       C  0.59054251  0.15013271  0.74642874    -0.08100
C1631       C  0.56561456  0.14862306  0.73042876     0.62280
H1632       H  0.60948237  0.17709018  0.71997231     0.12980
H1633       H  0.61907636  0.12476010  0.80199815     0.12990
C1634       C  0.66287928  0.14816894  0.79162741     0.62520
F1635       F  0.56599135  0.16500537  0.70865035    -0.22650
F1636       F  0.54493952  0.15582177  0.74601495    -0.19980
F1637       F  0.56198490  0.12330764  0.72167783    -0.19660
F1638       F  0.65874555  0.15716877  0.81698186    -0.19710
F1639       F  0.68370434  0.16134247  0.78133766    -0.20030
F1640       F  0.66958229  0.12197113  0.79300020    -0.22700
C1641       C  0.46879004  0.16274859  0.77311181    -0.05540
C1642       C  0.47000687  0.13803586  0.76076460     0.00380
C1643       C  0.45736015  0.13495998  0.73598646    -0.08190
C1644       C  0.44050462  0.15474768  0.72712440    -0.05560
C1645       C  0.43800879  0.17902862  0.74007838     0.00370
C1646       C  0.45433561  0.18376520  0.76219737    -0.08100
C1647       C  0.45791403  0.21063323  0.77409492     0.62280
H1648       H  0.47955476  0.16592430  0.79130675     0.12980
H1649       H  0.42859349  0.15061914  0.71003401     0.12990
C1650       C  0.46168952  0.11139077  0.71827521     0.62520
F1651       F  0.48374538  0.21444056  0.78055206    -0.22650
F1652       F  0.44347368  0.21262485  0.79671017    -0.19980
F1653       F  0.45060556  0.23029659  0.75672217    -0.19660
F1654       F  0.44822836  0.09014760  0.72771513    -0.19710
F1655       F  0.48785630  0.10547335  0.71719673    -0.20030
F1656       F  0.45325027  0.11617531  0.69264372    -0.22700
C1657       C  0.71312021  0.26590049  0.88445825    -0.05540
C1658       C  0.70691064  0.23954496  0.87917644     0.00380
C1659       C  0.72338049  0.22591644  0.86113281    -0.08190
C1660       C  0.74070093  0.24072929  0.84554386    -0.05560
C1661       C  0.74441036  0.26768674  0.85028814     0.00370
C1662       C  0.73637046  0.27619275  0.87530769    -0.08100
C1663       C  0.75665527  0.27833371  0.89708412     0.62280
H1664       H  0.70300481  0.27682294  0.89942708     0.12980
H1665       H  0.75065153  0.23139269  0.82935707     0.12990
C1666       C  0.72444148  0.19645238  0.85832951     0.62520
F1667       F  0.75939632  0.25443673  0.90975220    -0.22650
F1668       F  0.74899561  0.29660251  0.91553349    -0.19980
F1669       F  0.78064908  0.28482368  0.88737840    -0.19660
F1670       F  0.71109686  0.18903079  0.83579816    -0.19710
F1671       F  0.71439449  0.18380694  0.88003154    -0.20030
F1672       F  0.74996416  0.18833891  0.85612488    -0.22700
C1673       C  0.62994828  0.15476821  0.89912345    -0.05540
C1674       C  0.62947217  0.17800982  0.88438874     0.00380
C1675       C  0.61115301  0.18096490  0.86365253    -0.08190
C1676       C  0.59503859  0.15973096  0.85725060    -0.05560
C1677       C  0.59545933  0.13619146  0.87189097     0.00370
C1678       C  0.61284336  0.13405467  0.89386802    -0.08100
C1679       C  0.61306478  0.11075077  0.91253347     0.62280
H1680       H  0.64358994  0.15332586  0.91548885     0.12980
H1681       H  0.58180243  0.16156373  0.84061468     0.12990
C1682       C  0.60786742  0.20674998  0.84912978     0.62520
F1683       F  0.62751877  0.11550020  0.93520313    -0.22650
F1684       F  0.62386445  0.08934809  0.90019513    -0.19980
F1685       F  0.58808573  0.10510952  0.92023711    -0.19660
F1686       F  0.63016789  0.21243380  0.83563787    -0.19710
F1687       F  0.60288935  0.22650946  0.86699482    -0.20030
F1688       F  0.58756235  0.20613411  0.83104909    -0.22700
C1689       C  0.37549756  0.26482953  0.86077856    -0.05540
C1690       C  0.36281712  0.24731296  0.87754792     0.00380
C1691       C  0.33549989  0.24656954  0.87731694    -0.08190
C1692       C  0.32174907  0.26320567  0.85988563    -0.05560
C1693       C  0.33424760  0.28097758  0.84311964     0.00370
C1694       C  0.36176700  0.28196998  0.84374543    -0.08100
C1695       C  0.37787342  0.30044602  0.82739155     0.62280
H1696       H  0.39650447  0.26530850  0.86121688     0.12980
H1697       H  0.30085161  0.26239651  0.85921572     0.12990
C1698       C  0.32103151  0.22812288  0.89531898     0.62520
F1699       F  0.39298582  0.31554100  0.84405816    -0.22650
F1700       F  0.36319680  0.31704153  0.81178514    -0.19980
F1701       F  0.39396237  0.28605727  0.81121505    -0.19660
F1702       F  0.32647560  0.23412128  0.92138902    -0.19710
F1703       F  0.32862524  0.20264053  0.89042461    -0.20030
F1704       F  0.29447077  0.22988329  0.89152395    -0.22700
C1705       C  0.42554841  0.14890019  0.90022154    -0.05540
C1706       C  0.42665303  0.17356551  0.88834531     0.00380
C1707       C  0.44638961  0.17886669  0.87002732    -0.08190
C1708       C  0.46274261  0.15828149  0.86212521    -0.05560
C1709       C  0.46155009  0.13317487  0.87364318     0.00370
C1710       C  0.44327115  0.12886971  0.89415724    -0.08100
C1711       C  0.44273404  0.10404764  0.91071777     0.62280
H1712       H  0.41104682  0.14581441  0.91518923     0.12980
H1713       H  0.47695493  0.16196958  0.84705341     0.12990
C1714       C  0.45125634  0.20648366  0.86027490     0.62520
F1715       F  0.42752182  0.10691979  0.93288748    -0.22650
F1716       F  0.46749899  0.09769781  0.91939850    -0.19980
F1717       F  0.43257620  0.08381505  0.89601863    -0.19660
F1718       F  0.45564093  0.22277160  0.88159666    -0.19710
F1719       F  0.43005065  0.21562742  0.84612820    -0.20030
F1720       F  0.47268439  0.20769585  0.84414589    -0.22700
C1721       C  0.36361374  0.25822631  0.27657050    -0.05540
C1722       C  0.35044142  0.24063194  0.26011916     0.00380
C1723       C  0.32316701  0.23896249  0.26200543    -0.08190
C1724       C  0.31012461  0.25455934  0.28072627    -0.05560
C1725       C  0.32306731  0.27283138  0.29683553     0.00370
C1726       C  0.35054925  0.27463659  0.29458915    -0.08100
C1727       C  0.36747901  0.29326866  0.31010604     0.62280
H1728       H  0.38448513  0.25960783  0.27486999     0.12980
H1729       H  0.28931289  0.25316101  0.28233644     0.12990
C1730       C  0.30785065  0.22142591  0.24353854     0.62520
F1731       F  0.38118267  0.30869608  0.29275546    -0.22650
F1732       F  0.38486901  0.27902453  0.32545268    -0.19980
F1733       F  0.35372323  0.30951874  0.32639298    -0.19660
F1734       F  0.31538989  0.19570119  0.24726447    -0.19710
F1735       F  0.31237292  0.22855549  0.21764008    -0.20030
F1736       F  0.28145426  0.22322820  0.24780912    -0.22700
C1737       C  0.62273619  0.27294948  0.98105823    -0.05540
C1738       C  0.62040384  0.25589923  0.00261249     0.00380
C1739       C  0.63199760  0.23083526  0.00170218    -0.08190
C1740       C  0.64563670  0.22353785  0.97893447    -0.05560
C1741       C  0.64657772  0.23997318  0.95672153     0.00370
C1742       C  0.63491748  0.26510375  0.95765321    -0.08100
C1743       C  0.63314106  0.28248892  0.93329793     0.62280
H1744       H  0.61297035  0.29173494  0.98194005     0.12980
H1745       H  0.65408667  0.20416478  0.97751546     0.12990
C1746       C  0.62871969  0.21151965  0.02409290     0.62520
F1747       F  0.62005839  0.30563835  0.93827212    -0.22650
F1748       F  0.61999808  0.26956739  0.91332875    -0.19980
F1749       F  0.65763088  0.28869085  0.92471795    -0.19660
F1750       F  0.60280036  0.20555524  0.02681010    -0.19710
F1751       F  0.63776589  0.22236005  0.04726972    -0.20030
F1752       F  0.64227311  0.18850643  0.01982786    -0.22700
C1753       C  0.43246325  0.23103874  0.00526030    -0.05540
C1754       C  0.44690158  0.25375551  0.00097649     0.00380
C1755       C  0.44339619  0.26785805  0.97714368    -0.08190
C1756       C  0.42694809  0.25809978  0.95754673    -0.05560
C1757       C  0.41378614  0.23463728  0.96092604     0.00370
C1758       C  0.41568859  0.22116103  0.98544992    -0.08100
C1759       C  0.39983946  0.19686682  0.99074629     0.62280
H1760       H  0.43504412  0.22070624  0.02380105     0.12980
H1761       H  0.42519356  0.26817926  0.93876265     0.12990
C1762       C  0.45618903  0.29383996  0.97305109     0.62520
F1763       F  0.40152742  0.18933618  0.01698759    -0.22650
F1764       F  0.40846884  0.17626960  0.97555265    -0.19980
F1765       F  0.37407046  0.20183686  0.98472401    -0.19660
F1766       F  0.48281678  0.29104238  0.97378362    -0.19710
F1767       F  0.44834174  0.30977282  0.99314991    -0.20030
F1768       F  0.44911192  0.30553699  0.94933556    -0.22700
C1769       C  0.42489328  0.37935974  0.17180543    -0.05540
C1770       C  0.40295205  0.36356020  0.17463349     0.00380
C1771       C  0.40139969  0.33959865  0.16076710    -0.08190
C1772       C  0.42236794  0.33217458  0.14491420    -0.05560
C1773       C  0.44415291  0.34821035  0.14186942     0.00370
C1774       C  0.44525569  0.37255503  0.15509561    -0.08100
C1775       C  0.46701214  0.39197347  0.15082719     0.62280
H1776       H  0.42569335  0.39759829  0.18255329     0.12980
H1777       H  0.42194196  0.31354122  0.13481516     0.12990
C1778       C  0.37780565  0.32206010  0.16197328     0.62520
F1779       F  0.46118877  0.41627995  0.16125717    -0.22650
F1780       F  0.47114944  0.39527562  0.12408500    -0.19980
F1781       F  0.48950987  0.38306763  0.16296607    -0.19660
F1782       F  0.35526787  0.33666738  0.15945129    -0.19710
F1783       F  0.37775073  0.30862928  0.18566830    -0.20030
F1784       F  0.37784808  0.30388599  0.14179515    -0.22700
C1785       C  0.41910462  0.25130650  0.13535499    -0.05540
C1786       C  0.44541588  0.25185335  0.14359486     0.00380
C1787       C  0.45134765  0.24500901  0.17042033    -0.08190
C1788       C  0.43107350  0.23822673  0.18739375    -0.05560
C1789       C  0.40528806  0.23667466  0.17881405     0.00370
C1790       C  0.39904782  0.24315262  0.15238779    -0.08100
C1791       C  0.37144617  0.24064627  0.14229969     0.62280
H1792       H  0.41437704  0.25646622  0.11512430     0.12980
H1793       H  0.43532652  0.23256286  0.20761717     0.12990
C1794       C  0.47880099  0.24411987  0.18161772     0.62520
F1795       F  0.36889138  0.24880724  0.11631623    -0.22650
F1796       F  0.35512103  0.25570411  0.15758706    -0.19980
F1797       F  0.36386538  0.21481826  0.14380622    -0.19660
F1798       F  0.49066114  0.26798216  0.17790847    -0.19710
F1799       F  0.49263449  0.22444298  0.16935804    -0.20030
F1800       F  0.47942310  0.23884291  0.20845360    -0.22700
C1801       C  0.66417695  0.23199969  0.15368900    -0.05540
C1802       C  0.65360677  0.21890562  0.17533657     0.00380
C1803       C  0.62634675  0.21532148  0.17648584    -0.08190
C1804       C  0.61114883  0.22332344  0.15505453    -0.05560
C1805       C  0.62108595  0.23814197  0.13414731     0.00370
C1806       C  0.64842012  0.24250587  0.13327685    -0.08100
C1807       C  0.66139896  0.25803821  0.11145470     0.62280
H1808       H  0.68498323  0.23444147  0.15328629     0.12980
H1809       H  0.59062436  0.21926129  0.15573678     0.12990
C1810       C  0.61219335  0.20478713  0.20055971     0.62520
F1811       F  0.68815533  0.25723524  0.11368205    -0.22650
F1812       F  0.65394688  0.28400845  0.11229974    -0.19980
F1813       F  0.65476484  0.24776968  0.08721505    -0.19660
F1814       F  0.62445832  0.21216139  0.22369579    -0.19710
F1815       F  0.61062947  0.17785098  0.19934781    -0.20030
F1816       F  0.58715516  0.21460499  0.20166253    -0.22700
C1817       C  0.64430519  0.33739733  0.00481974    -0.05540
C1818       C  0.62235847  0.35345940  0.00866444     0.00380
C1819       C  0.61947682  0.37632341  0.99283065    -0.08190
C1820       C  0.63729240  0.38088094  0.97255810    -0.05560
C1821       C  0.65928427  0.36503395  0.96879420     0.00370
C1822       C  0.66326162  0.34316434  0.98574144    -0.08100
C1823       C  0.68776870  0.32658726  0.98475297     0.62280
H1824       H  0.64651995  0.32001607  0.01688365     0.12980
H1825       H  0.63470781  0.39782641  0.95990230     0.12990
C1826       C  0.59868514  0.39687146  0.99780874     0.62520
F1827       F  0.68929774  0.30908058  0.00560878    -0.22650
F1828       F  0.70935020  0.34241955  0.98608293    -0.19980
F1829       F  0.68827811  0.31232505  0.96169695    -0.19660
F1830       F  0.59663079  0.40155696  0.02460138    -0.19710
F1831       F  0.57517245  0.38856943  0.98778676    -0.20030
F1832       F  0.60446379  0.42042953  0.98578348    -0.22700
C1833       C  0.62327153  0.14041285  0.26640417    -0.05540
C1834       C  0.61990835  0.11936300  0.24910026     0.00380
C1835       C  0.63867776  0.11417786  0.22978619    -0.08190
C1836       C  0.65969809  0.13135277  0.22743481    -0.05560
C1837       C  0.66183551  0.15406662  0.24303979     0.00370
C1838       C  0.64408743  0.15784234  0.26398870    -0.08100
C1839       C  0.64682496  0.17993354  0.28382904     0.62280
H1840       H  0.60936827  0.14293434  0.28207524     0.12980
H1841       H  0.67343412  0.12854211  0.21166724     0.12990
C1842       C  0.63555990  0.09147715  0.21088119     0.62520
F1843       F  0.62704711  0.17991960  0.30206794    -0.22650
F1844       F  0.64633927  0.20389913  0.27122700    -0.19980
F1845       F  0.66990685  0.17699205  0.29761081    -0.19660
F1846       F  0.61191807  0.09352759  0.19786077    -0.19710
F1847       F  0.63654071  0.06823912  0.22476045    -0.20030
F1848       F  0.65486407  0.09091765  0.19214335    -0.22700
C1849       C  0.41576143  0.12173183  0.25704998    -0.05540
C1850       C  0.44152632  0.12249509  0.24770547     0.00380
C1851       C  0.44714635  0.14110363  0.22772258    -0.08190
C1852       C  0.42958653  0.16153066  0.22294804    -0.05560
C1853       C  0.40414236  0.16156432  0.23265924     0.00370
C1854       C  0.39644067  0.13976287  0.24811698    -0.08100
C1855       C  0.36829702  0.13349169  0.25376916     0.62280
H1856       H  0.41034927  0.10645935  0.27073499     0.12980
H1857       H  0.43610732  0.17777700  0.21108583     0.12990
C1858       C  0.47076303  0.13942111  0.21011923     0.62520
F1859       F  0.36350094  0.10781408  0.24687029    -0.22650
F1860       F  0.35119816  0.14902120  0.23945618    -0.19980
F1861       F  0.36324158  0.13642287  0.28030034    -0.19660
F1862       F  0.47569637  0.11369541  0.20333458    -0.19710
F1863       F  0.49201585  0.14994463  0.22285690    -0.20030
F1864       F  0.46683490  0.15312833  0.18676829    -0.22700
C1865       C  0.43570794  0.13748891  0.33981379    -0.05540
C1866       C  0.45492900  0.12649068  0.35610306     0.00380
C1867       C  0.45855733  0.13605000  0.38209190    -0.08190
C1868       C  0.44211217  0.15593367  0.39096609    -0.05560
C1869       C  0.42101659  0.16521700  0.37572405     0.00370
C1870       C  0.41882733  0.15714983  0.34885775    -0.08100
C1871       C  0.39976234  0.16919114  0.32918597     0.62280
H1872       H  0.43442760  0.13073796  0.31958993     0.12980
H1873       H  0.44468834  0.16340888  0.41080597     0.12990
C1874       C  0.47870389  0.12456461  0.40105511     0.62520
F1875       F  0.40100644  0.15708007  0.30495362    -0.22650
F1876       F  0.40591155  0.19508265  0.32489901    -0.19980
F1877       F  0.37464051  0.16700849  0.33806575    -0.19660
F1878       F  0.50312105  0.13283914  0.39410911    -0.19710
F1879       F  0.47782034  0.09754798  0.40044673    -0.20030
F1880       F  0.47445978  0.13227880  0.42684444    -0.22700
C1881       C  0.74745193  0.13152800  0.43171984    -0.05540
C1882       C  0.72926541  0.15125203  0.43623795     0.00380
C1883       C  0.71834561  0.15406821  0.46150013    -0.08190
C1884       C  0.72603481  0.13655911  0.48152582    -0.05560
C1885       C  0.74390759  0.11604710  0.47712552     0.00370
C1886       C  0.75466068  0.11336571  0.45131465    -0.08100
C1887       C  0.77306507  0.09141351  0.44350127     0.62280
H1888       H  0.75492172  0.12967217  0.41190433     0.12980
H1889       H  0.71751826  0.13893510  0.50083340     0.12990
C1890       C  0.69836547  0.17481430  0.46836071     0.62520
F1891       F  0.78002909  0.09278898  0.41721229    -0.22650
F1892       F  0.76141472  0.06744873  0.44730743    -0.19980
F1893       F  0.79554441  0.09292420  0.45828770    -0.19660
F1894       F  0.67526130  0.16280047  0.47445340    -0.19710
F1895       F  0.69376168  0.19251456  0.44815832    -0.20030
F1896       F  0.70691319  0.18866936  0.49016609    -0.22700
C1897       C  0.62121772  0.13562854  0.36269489    -0.05540
C1898       C  0.62698360  0.11476981  0.34547199     0.00380
C1899       C  0.65317334  0.11134867  0.33710977    -0.08190
C1900       C  0.67199068  0.12893091  0.34637698    -0.05560
C1901       C  0.66593827  0.14913057  0.36381446     0.00370
C1902       C  0.64015722  0.15289877  0.37194401    -0.08100
C1903       C  0.63148108  0.17454227  0.39041017     0.62280
H1904       H  0.60153131  0.13873317  0.36924842     0.12980
H1905       H  0.69209168  0.12648450  0.34092628     0.12990
C1906       C  0.66202066  0.08922303  0.31920019     0.62520
F1907       F  0.61125529  0.18834528  0.37870089    -0.22650
F1908       F  0.65082471  0.19216421  0.39645079    -0.19980
F1909       F  0.62287311  0.16355539  0.41366261    -0.19660
F1910       F  0.65020925  0.09156401  0.29471589    -0.19710
F1911       F  0.65606717  0.06535571  0.33041370    -0.20030
F1912       F  0.68851549  0.08945913  0.31521932    -0.22700
C1913       C  0.76167606  0.23895220  0.27123095    -0.05540
C1914       C  0.75783959  0.26617620  0.27301602     0.00380
C1915       C  0.74078086  0.27645429  0.25325335    -0.08190
C1916       C  0.71976455  0.26080059  0.24517825    -0.05560
C1917       C  0.72186683  0.23326918  0.24597333     0.00370
C1918       C  0.74517487  0.22250160  0.25660233    -0.08100
C1919       C  0.75423509  0.19462832  0.25154478     0.62280
H1920       H  0.77861502  0.23050973  0.27994824     0.12980
H1921       H  0.70413561  0.26999506  0.23409201     0.12990
C1922       C  0.75027744  0.29465504  0.23174401     0.62520
F1923       F  0.78098465  0.19360057  0.24992612    -0.22650
F1924       F  0.74456283  0.18514368  0.22788485    -0.19980
F1925       F  0.74667368  0.17860722  0.27202351    -0.19660
F1926       F  0.77554169  0.30235072  0.23606477    -0.19710
F1927       F  0.74981627  0.28176957  0.20771253    -0.20030
F1928       F  0.73421624  0.31621202  0.22944609    -0.22700
C1929       C  0.76295678  0.20243756  0.34660340    -0.05540
C1930       C  0.74015283  0.21063049  0.35885250     0.00380
C1931       C  0.73235135  0.23701527  0.35725058    -0.08190
C1932       C  0.74746991  0.25431634  0.34263270    -0.05560
C1933       C  0.76983403  0.24634029  0.32926605     0.00370
C1934       C  0.77818131  0.21979109  0.33192128    -0.08100
C1935       C  0.80254839  0.20833689  0.32010448     0.62280
H1936       H  0.76892382  0.18214727  0.34852824     0.12980
H1937       H  0.74261287  0.27471459  0.34271708     0.12990
C1938       C  0.70866745  0.24700679  0.37174188     0.62520
F1939       F  0.81882937  0.19962985  0.34018042    -0.22650
F1940       F  0.81570313  0.22597960  0.30479981    -0.19980
F1941       F  0.79609932  0.18724569  0.30437922    -0.19660
F1942       F  0.71118682  0.24142937  0.39838746    -0.19710
F1943       F  0.68663046  0.23512998  0.36189157    -0.20030
F1944       F  0.70547088  0.27376397  0.36896003    -0.22700
C1945       C  0.80534314  0.26059608  0.37732789    -0.05540
C1946       C  0.81862493  0.26413845  0.35351511     0.00380
C1947       C  0.84381481  0.25259650  0.35115847    -0.08190
C1948       C  0.85448375  0.23861849  0.37274133    -0.05560
C1949       C  0.84094653  0.23492285  0.39623657     0.00370
C1950       C  0.81601820  0.24637478  0.39876146    -0.08100
C1951       C  0.80091041  0.24421921  0.42417390     0.62280
H1952       H  0.78602785  0.26855086  0.37886844     0.12980
H1953       H  0.87352359  0.22973916  0.37093560     0.12990
C1954       C  0.86005476  0.25268951  0.32631693     0.62520
F1955       F  0.77842952  0.25913046  0.42339119    -0.22650
F1956       F  0.81598553  0.25293804  0.44506234    -0.19980
F1957       F  0.79396500  0.21856323  0.42849535    -0.19660
F1958       F  0.88378938  0.26381476  0.33164472    -0.19710
F1959       F  0.84857987  0.26607310  0.30562281    -0.20030
F1960       F  0.86451962  0.22723165  0.31833397    -0.22700
C1961       C  0.76762953  0.35074565  0.26489884    -0.05540
C1962       C  0.75885105  0.32942934  0.28017829     0.00380
C1963       C  0.73177083  0.33020525  0.28656070    -0.08190
C1964       C  0.71494615  0.34762305  0.27245996    -0.05560
C1965       C  0.72468922  0.36808926  0.25680038     0.00370
C1966       C  0.75156962  0.37227935  0.25920649    -0.08100
C1967       C  0.76270532  0.39894796  0.26556453     0.62280
H1968       H  0.78736382  0.35245873  0.25893018     0.12980
H1969       H  0.69425154  0.34589264  0.27474879     0.12990
C1970       C  0.72069539  0.31518242  0.30953988     0.62520
F1971       F  0.77592925  0.39754062  0.28928318    -0.22650
F1972       F  0.74366020  0.41775914  0.26899140    -0.19980
F1973       F  0.77964717  0.40662318  0.24609670    -0.19660
F1974       F  0.73653237  0.31851498  0.33140665    -0.19710
F1975       F  0.71844588  0.28905735  0.30354447    -0.20030
F1976       F  0.69628458  0.32429087  0.31610661    -0.22700
C1977       C  0.64986118  0.34578031  0.18753574    -0.05540
C1978       C  0.64734202  0.37252786  0.19325579     0.00380
C1979       C  0.62670404  0.38666758  0.18089681    -0.08190
C1980       C  0.61306101  0.37506723  0.15985899    -0.05560
C1981       C  0.61649747  0.34864166  0.15306684     0.00370
C1982       C  0.63350372  0.33322095  0.16915097    -0.08100
C1983       C  0.63416558  0.30368982  0.16967340     0.62280
H1984       H  0.66475464  0.33433006  0.19753093     0.12980
H1985       H  0.59847591  0.38658048  0.14940761     0.12990
C1986       C  0.61753106  0.41348799  0.18974600     0.62520
F1987       F  0.62872643  0.29513007  0.19493764    -0.22650
F1988       F  0.65867650  0.29500944  0.16317929    -0.19980
F1989       F  0.61624597  0.29272477  0.15283411    -0.19660
F1990       F  0.62282535  0.43178889  0.17043564    -0.19710
F1991       F  0.62886606  0.42116348  0.21332647    -0.20030
F1992       F  0.59102683  0.41296229  0.19350761    -0.22700
C1993       C  0.60275453  0.95259988  0.26107582    -0.05540
C1994       C  0.61247376  0.97681076  0.25289154     0.00380
C1995       C  0.63861042  0.97845177  0.24467069    -0.08190
C1996       C  0.65346416  0.95522457  0.24329143    -0.05560
C1997       C  0.64308189  0.93091912  0.25030275     0.00370
C1998       C  0.61762129  0.92970488  0.26029767    -0.08100
C1999       C  0.60472048  0.90472771  0.26949295     0.62280
H2000       H  0.58313936  0.95148942  0.26845848     0.12980
H2001       H  0.67283341  0.95560237  0.23530761     0.12990
C2002       C  0.65022689  0.00411253  0.23582075     0.62520
F2003       F  0.59542526  0.90833704  0.29474354    -0.22650
F2004       F  0.62127107  0.88339557  0.27017420    -0.19980
F2005       F  0.58410553  0.89916003  0.25279676    -0.19660
F2006       F  0.65250131  0.02091592  0.25703298    -0.19710
F2007       F  0.63449287  0.01534270  0.21658352    -0.20030
F2008       F  0.67465565  0.00067933  0.22532697    -0.22700
C2009       C  0.43521694  0.93196937  0.27146805    -0.05540
C2010       C  0.41602347  0.93385178  0.25198155     0.00380
C2011       C  0.40990116  0.95850271  0.24069651    -0.08190
C2012       C  0.42453897  0.98050090  0.24848754    -0.05560
C2013       C  0.44540056  0.97806673  0.26642968     0.00370
C2014       C  0.45030252  0.95341822  0.27871525    -0.08100
C2015       C  0.47160191  0.94778288  0.29883108     0.62280
H2016       H  0.43965762  0.91293592  0.27996641     0.12980
H2017       H  0.42095001  0.99933147  0.23929265     0.12990
C2018       C  0.38844364  0.96122430  0.22019303     0.62520
F2019       F  0.46083116  0.93704595  0.32122702    -0.22650
F2020       F  0.48512835  0.96959790  0.30627616    -0.19980
F2021       F  0.48891424  0.92995680  0.28838522    -0.19660
F2022       F  0.36556954  0.95187175  0.23042998    -0.19710
F2023       F  0.39460745  0.94703485  0.19792708    -0.20030
F2024       F  0.38452687  0.98701236  0.21273870    -0.22700
C2025       C  0.60775019  0.85898732  0.19477677    -0.05540
C2026       C  0.63451146  0.85806946  0.18939825     0.00380
C2027       C  0.64310786  0.84393820  0.16704871    -0.08190
C2028       C  0.62469007  0.83026689  0.15191620    -0.05560
C2029       C  0.59797531  0.83195546  0.15692472     0.00370
C2030       C  0.58925120  0.84702984  0.17836921    -0.08100
C2031       C  0.56063875  0.85116068  0.18349335     0.62280
H2032       H  0.60128529  0.86936508  0.21210765     0.12980
H2033       H  0.63115316  0.81879355  0.13523280     0.12990
C2034       C  0.67103017  0.84329461  0.15787728     0.62520
F2035       F  0.55641872  0.86920752  0.20333667    -0.22650
F2036       F  0.54982016  0.82778577  0.19106887    -0.19980
F2037       F  0.54831200  0.86025403  0.16083014    -0.19660
F2038       F  0.68299148  0.82074330  0.16710298    -0.19710
F2039       F  0.68481242  0.86481919  0.16638843    -0.20030
F2040       F  0.67184307  0.84328278  0.13055913    -0.22700
C2041       C  0.45096495  0.85587638  0.14776080    -0.05540
C2042       C  0.46642133  0.83439536  0.15592560     0.00380
C2043       C  0.46427293  0.82561946  0.18267889    -0.08190
C2044       C  0.44752519  0.83896161  0.19977650    -0.05560
C2045       C  0.43218940  0.86009077  0.19147021     0.00370
C2046       C  0.43372503  0.86875335  0.16492703    -0.08100
C2047       C  0.41705840  0.89114483  0.15442807     0.62280
H2048       H  0.45249376  0.86276311  0.12762304     0.12980
H2049       H  0.44611420  0.83289755  0.22020719     0.12990
C2050       C  0.47812708  0.80153710  0.19344756     0.62520
F2051       F  0.41715030  0.89222048  0.12711120    -0.22650
F2052       F  0.42638594  0.91463270  0.16379165    -0.19980
F2053       F  0.39167084  0.88810653  0.16225162    -0.19660
F2054       F  0.50457761  0.80511444  0.19353463    -0.19710
F2055       F  0.47170020  0.78045266  0.17805427    -0.20030
F2056       F  0.47108081  0.79561800  0.21906983    -0.22700
C2057       C  0.62849944  0.73119616  0.15252301    -0.05540
C2058       C  0.60351264  0.73342199  0.16304963     0.00380
C2059       C  0.60059656  0.73066762  0.19079804    -0.08190
C2060       C  0.62230569  0.72239413  0.20617597    -0.05560
C2061       C  0.64673310  0.71830750  0.19482143     0.00370
C2062       C  0.65012686  0.72406088  0.16770748    -0.08100
C2063       C  0.67576106  0.72272316  0.15316693     0.62280
H2064       H  0.63143038  0.73514574  0.13177855     0.12980
H2065       H  0.62025924  0.71840659  0.22704899     0.12990
C2066       C  0.57500126  0.73620582  0.20411055     0.62520
F2067       F  0.68055631  0.74678880  0.14178100    -0.22650
F2068       F  0.67401931  0.70428134  0.13331165    -0.19980
F2069       F  0.69674339  0.71646830  0.16909286    -0.19660
F2070       F  0.55578543  0.72078038  0.19320213    -0.19710
F2071       F  0.56849249  0.76229494  0.20082206    -0.20030
F2072       F  0.57626144  0.73113486  0.23095531    -0.22700
C2073       C  0.74769328  0.85200302  0.28337288    -0.05540
C2074       C  0.74739887  0.82452279  0.28086101     0.00380
C2075       C  0.73246139  0.81509690  0.25947597    -0.08190
C2076       C  0.70923524  0.82831998  0.25409943    -0.05560
C2077       C  0.70842874  0.85590456  0.25589630     0.00370
C2078       C  0.72996683  0.86808656  0.26904033    -0.08100
C2079       C  0.73560306  0.89711868  0.26820639     0.62280
H2080       H  0.76195126  0.86100749  0.29621110     0.12980
H2081       H  0.69439655  0.81759950  0.24366100     0.12990
C2082       C  0.74596576  0.80695680  0.23433319     0.62520
F2083       F  0.76209899  0.90121066  0.26846780    -0.22650
F2084       F  0.72529366  0.90904917  0.29018290    -0.19980
F2085       F  0.72587957  0.90871502  0.24545634    -0.19660
F2086       F  0.73457541  0.78471264  0.22425555    -0.19710
F2087       F  0.77218034  0.80309036  0.23848663    -0.20030
F2088       F  0.74353041  0.82643803  0.21536431    -0.22700
C2089       C  0.76464731  0.75124252  0.25436155    -0.05540
C2090       C  0.75527669  0.76116078  0.27849448     0.00380
C2091       C  0.73372567  0.74793862  0.28972996    -0.08190
C2092       C  0.71972083  0.72994457  0.27425104    -0.05560
C2093       C  0.72774554  0.72225005  0.24911523     0.00370
C2094       C  0.75144828  0.73205408  0.23948052    -0.08100
C2095       C  0.76266543  0.72298378  0.21343147     0.62280
H2096       H  0.78244048  0.75894749  0.24677542     0.12980
H2097       H  0.70235760  0.72122706  0.28220102     0.12990
C2098       C  0.72574364  0.74943633  0.31841484     0.62520
F2099       F  0.78418577  0.73732785  0.20642709    -0.22650
F2100       F  0.74440610  0.72563475  0.19343452    -0.19980
F2101       F  0.77029389  0.69712446  0.21547074    -0.19660
F2102       F  0.69970514  0.75583756  0.31986370    -0.19710
F2103       F  0.73970166  0.76728338  0.33291576    -0.20030
F2104       F  0.72939636  0.72514477  0.32996220    -0.22700
C2105       C  0.83384196  0.74392203  0.38508151    -0.05540
C2106       C  0.85863180  0.73786005  0.37594379     0.00380
C2107       C  0.86576133  0.74583276  0.35025143    -0.08190
C2108       C  0.84797596  0.76071690  0.33520047    -0.05560
C2109       C  0.82359165  0.76836490  0.34484001     0.00370
C2110       C  0.81583335  0.75819519  0.36968531    -0.08100
C2111       C  0.78807639  0.75970180  0.37893035     0.62280
H2112       H  0.82867194  0.73703988  0.40454935     0.12980
H2113       H  0.85347008  0.76708310  0.31579983     0.12990
C2114       C  0.89239531  0.74000933  0.33905778     0.62520
F2115       F  0.78511367  0.74906309  0.40386778    -0.22650
F2116       F  0.77285623  0.74558445  0.36168728    -0.19980
F2117       F  0.77949096  0.78519915  0.37985531    -0.19660
F2118       F  0.89479835  0.71358307  0.33416501    -0.19710
F2119       F  0.91153390  0.74768929  0.35667388    -0.20030
F2120       F  0.89641667  0.75306589  0.31549260    -0.22700
C2121       C  0.70780884  0.95779300  0.45105015    -0.05540
C2122       C  0.72363716  0.95988795  0.42895466     0.00380
C2123       C  0.74421472  0.97787085  0.42875336    -0.08190
C2124       C  0.74964006  0.99181208  0.45184950    -0.05560
C2125       C  0.73422799  0.98961821  0.47462992     0.00370
C2126       C  0.71215950  0.97292615  0.47379432    -0.08100
C2127       C  0.69271545  0.97120763  0.49602716     0.62280
H2128       H  0.69160931  0.94445450  0.45002875     0.12980
H2129       H  0.76607572  0.00480845  0.45193536     0.12990
C2130       C  0.75973071  0.98286320  0.40390001     0.62520
F2131       F  0.67085070  0.95735999  0.48864943    -0.22650
F2132       F  0.68466403  0.99601068  0.50319541    -0.19980
F2133       F  0.70380344  0.95851762  0.51745031    -0.19660
F2134       F  0.74353664  0.99361398  0.38475753    -0.19710
F2135       F  0.76962288  0.95956265  0.39460674    -0.20030
F2136       F  0.78031889  0.99977271  0.40818287    -0.22700
C2137       C  0.64595177  0.98574858  0.32521311    -0.05540
C2138       C  0.62273714  0.98188093  0.33929406     0.00380
C2139       C  0.62202433  0.96159334  0.35858692    -0.08190
C2140       C  0.64483699  0.94735143  0.36392166    -0.05560
C2141       C  0.66818188  0.95306788  0.35146876     0.00370
C2142       C  0.66886085  0.97209456  0.33145180    -0.08100
C2143       C  0.69390916  0.97846121  0.31753701     0.62280
H2144       H  0.64647343  0.00034793  0.30974939     0.12980
H2145       H  0.64519864  0.93260295  0.37931193     0.12990
C2146       C  0.59795132  0.95502069  0.37413686     0.62520
F2147       F  0.69031980  0.99714196  0.29799194    -0.22650
F2148       F  0.70366536  0.95611025  0.30596553    -0.19980
F2149       F  0.71186616  0.98787680  0.33554197    -0.19660
F2150       F  0.57916587  0.94568847  0.35708131    -0.19710
F2151       F  0.58896741  0.97695382  0.38716120    -0.20030
F2152       F  0.60264066  0.93585976  0.39298327    -0.22700
C2153       C  0.71642366  0.86453301  0.35131024    -0.05540
C2154       C  0.73047233  0.87889459  0.37022936     0.00380
C2155       C  0.75284716  0.86581463  0.38108534    -0.08190
C2156       C  0.76255143  0.84358199  0.36774902    -0.05560
C2157       C  0.75298825  0.83496381  0.34304521     0.00370
C2158       C  0.72627646  0.84214523  0.33867606    -0.08100
C2159       C  0.70503622  0.82583269  0.32600580     0.62280
H2160       H  0.69640385  0.86980419  0.34738759     0.12980
H2161       H  0.77806289  0.83276345  0.37692369     0.12990
C2162       C  0.76620828  0.87313524  0.40696775     0.62520
F2163       F  0.71345640  0.80354744  0.31420838    -0.22650
F2164       F  0.68783461  0.81846380  0.34537491    -0.19980
F2165       F  0.69152567  0.84061515  0.30753893    -0.19660
F2166       F  0.74897370  0.87047315  0.42749252    -0.19710
F2167       F  0.77566924  0.89825613  0.40565774    -0.20030
F2168       F  0.78709652  0.85702560  0.41300671    -0.22700
C2169       C  0.72846664  0.60448619  0.18082396    -0.05540
C2170       C  0.72234122  0.60708233  0.15359840     0.00380
C2171       C  0.70378239  0.62654513  0.14615420    -0.08190
C2172       C  0.69703364  0.64567417  0.16454932    -0.05560
C2173       C  0.70447735  0.64434956  0.19128729     0.00370
C2174       C  0.71876439  0.62211503  0.19998701    -0.08100
C2175       C  0.72292033  0.61585958  0.22905047     0.62280
H2176       H  0.74100085  0.58860730  0.18726285     0.12980
H2177       H  0.68582317  0.66227853  0.15766964     0.12990
C2178       C  0.69015754  0.62745728  0.11935358     0.62520
F2179       F  0.72264603  0.58908620  0.23302559    -0.22650
F2180       F  0.70351071  0.62658539  0.24428934    -0.19980
F2181       F  0.74650537  0.62533638  0.23767181    -0.19660
F2182       F  0.68263856  0.60257664  0.11205746    -0.19710
F2183       F  0.70631443  0.63797333  0.10060990    -0.20030
F2184       F  0.66791206  0.64273638  0.11994717    -0.22700
C2185       C  0.72504522  0.48386310  0.17583203    -0.05540
C2186       C  0.73171288  0.47583067  0.15019140     0.00380
C2187       C  0.73041858  0.44860605  0.14391241    -0.08190
C2188       C  0.72182100  0.43102562  0.16294533    -0.05560
C2189       C  0.71429056  0.43915752  0.18785837     0.00370
C2190       C  0.71609837  0.46583248  0.19483388    -0.08100
C2191       C  0.70834973  0.47498393  0.22204038     0.62280
H2192       H  0.72663894  0.50436739  0.18077518     0.12980
H2193       H  0.72014093  0.41043074  0.15833012     0.12990
C2194       C  0.73815371  0.43743150  0.11744147     0.62520
F2195       F  0.71119051  0.50171773  0.22487899    -0.22650
F2196       F  0.72373351  0.46272392  0.24090681    -0.19980
F2197       F  0.68269920  0.46884920  0.22641110    -0.19660
F2198       F  0.76265989  0.44587594  0.11113732    -0.19710
F2199       F  0.72018956  0.44520537  0.09854410    -0.20030
F2200       F  0.73884947  0.41036159  0.11741983    -0.22700
C2201       C  0.71790655  0.48238002  0.96159200    -0.05540
C2202       C  0.74035779  0.47807126  0.97694453     0.00380
C2203       C  0.75282164  0.45323767  0.97648422    -0.08190
C2204       C  0.74182288  0.43336678  0.96142271    -0.05560
C2205       C  0.71847146  0.43699409  0.94777594     0.00370
C2206       C  0.70647731  0.46190403  0.94706604    -0.08100
C2207       C  0.68160376  0.46645251  0.93150730     0.62280
H2208       H  0.70851755  0.50135061  0.96244407     0.12980
H2209       H  0.75060305  0.41403894  0.96197678     0.12990
C2210       C  0.77673028  0.44561457  0.99250663     0.62520
F2211       F  0.67404027  0.49245462  0.93190877    -0.22650
F2212       F  0.66187639  0.45172113  0.94204389    -0.19980
F2213       F  0.68520928  0.45921643  0.90551052    -0.19660
F2214       F  0.77051042  0.42572753  0.00982263    -0.19710
F2215       F  0.78692050  0.46588218  0.00694424    -0.20030
F2216       F  0.79562923  0.43655923  0.97563557    -0.22700
C2217       C  0.84471898  0.74279340  0.25835725    -0.05540
C2218       C  0.84453166  0.71651201  0.26583819     0.00380
C2219       C  0.82738779  0.70815111  0.28578587    -0.08190
C2220       C  0.81056428  0.72656144  0.29736668    -0.05560
C2221       C  0.81113618  0.75304225  0.29022355     0.00370
C2222       C  0.82875304  0.76142865  0.27045822    -0.08100
C2223       C  0.83225527  0.78957087  0.26147123     0.62280
H2224       H  0.85784317  0.74892765  0.24299030     0.12980
H2225       H  0.79743638  0.72067482  0.31277555     0.12990
C2226       C  0.82755815  0.68013109  0.29540201     0.62520
F2227       F  0.85774977  0.79674070  0.26575470    -0.22650
F2228       F  0.81671276  0.80737539  0.27430774    -0.19980
F2229       F  0.82684672  0.79131384  0.23471187    -0.19660
F2230       F  0.85117318  0.67475942  0.30738524    -0.19710
F2231       F  0.82372879  0.66330671  0.27441011    -0.20030
F2232       F  0.80833647  0.67564511  0.31366801    -0.22700
C2233       C  0.85998487  0.62750548  0.15151478    -0.05540
C2234       C  0.83604491  0.61539309  0.15633972     0.00380
C2235       C  0.82128692  0.62413730  0.17809975    -0.08190
C2236       C  0.83198678  0.64265381  0.19544637    -0.05560
C2237       C  0.85590147  0.65449684  0.19069589     0.00370
C2238       C  0.86950016  0.64782766  0.16746165    -0.08100
C2239       C  0.89345262  0.66201368  0.15802654     0.62280
H2240       H  0.87098642  0.62184494  0.13431495     0.12980
H2241       H  0.82175433  0.64775663  0.21326844     0.12990
C2242       C  0.79369425  0.61557419  0.18217488     0.62520
F2243       F  0.89020618  0.66874666  0.13170536    -0.22650
F2244       F  0.91478801  0.64566469  0.16046114    -0.19980
F2245       F  0.89816319  0.68482154  0.17179179    -0.19660
F2246       F  0.79307682  0.58937210  0.18884638    -0.19710
F2247       F  0.77968532  0.62004283  0.15919997    -0.20030
F2248       F  0.78193918  0.62957286  0.20206398    -0.22700
C2249       C  0.81873791  0.36379459  0.30181014    -0.05540
C2250       C  0.81862421  0.33844983  0.29137949     0.00380
C2251       C  0.83444951  0.33282397  0.26913566    -0.08190
C2252       C  0.84911792  0.35304742  0.25805530    -0.05560
C2253       C  0.84850568  0.37842855  0.26814004     0.00370
C2254       C  0.83300257  0.38404463  0.29031143    -0.08100
C2255       C  0.83124006  0.41136545  0.30167303     0.62280
H2256       H  0.80700265  0.36790416  0.31874012     0.12980
H2257       H  0.86118820  0.34899508  0.24113708     0.12990
C2258       C  0.83689011  0.30636507  0.25582339     0.62520
F2259       F  0.81334589  0.41315857  0.32174862    -0.22650
F2260       F  0.82421926  0.42901907  0.28209864    -0.19980
F2261       F  0.85485062  0.41812704  0.31214694    -0.19660
F2262       F  0.82985366  0.30882963  0.22949106    -0.19710
F2263       F  0.82176605  0.28723343  0.26676979    -0.20030
F2264       F  0.86242852  0.29808506  0.25733146    -0.22700
C2265       C  0.86448088  0.47131858  0.15633063    -0.05540
C2266       C  0.83903557  0.48112266  0.15810129     0.00380
C2267       C  0.82356070  0.47248227  0.17949317    -0.08190
C2268       C  0.83460006  0.45646747  0.19918683    -0.05560
C2269       C  0.85988267  0.44674299  0.19745927     0.00370
C2270       C  0.87483753  0.45339060  0.17498033    -0.08100
C2271       C  0.90128274  0.44163349  0.16922558     0.62280
H2272       H  0.87617568  0.47707546  0.13967938     0.12980
H2273       H  0.82330568  0.45127501  0.21628515     0.12990
C2274       C  0.79475965  0.47750289  0.18018812     0.62520
F2275       F  0.90255577  0.43484095  0.14283020    -0.22650
F2276       F  0.90639535  0.41923697  0.18373569    -0.19980
F2277       F  0.92023590  0.45990233  0.17456919    -0.19660
F2278       F  0.78457591  0.46977064  0.15625934    -0.19710
F2279       F  0.78966069  0.50366279  0.18459854    -0.20030
F2280       F  0.78263777  0.46324982  0.19972655    -0.22700
C2281       C  0.21933248  0.35247520  0.26946416    -0.05540
C2282       C  0.22911973  0.37697911  0.26205388     0.00380
C2283       C  0.25437150  0.38404722  0.27082178    -0.08190
C2284       C  0.26787948  0.36692933  0.28801271    -0.05560
C2285       C  0.25744881  0.34309073  0.29677371     0.00370
C2286       C  0.23321694  0.33509444  0.28599891    -0.08100
C2287       C  0.22076237  0.30880491  0.29127773     0.62280
H2288       H  0.20012427  0.34705438  0.26261385     0.12980
H2289       H  0.28644764  0.37274003  0.29591298     0.12990
C2290       C  0.26675359  0.40997379  0.26362238     0.62520
F2291       F  0.20024222  0.31221891  0.30825746    -0.22650
F2292       F  0.23772006  0.29064898  0.30199420    -0.19980
F2293       F  0.21144693  0.29849743  0.26780300    -0.19660
F2294       F  0.24994666  0.43046874  0.26860521    -0.19710
F2295       F  0.27323824  0.40995168  0.23725299    -0.20030
F2296       F  0.28926821  0.41437289  0.27801214    -0.22700
C2297       C  0.94287140  0.61968779  0.27672986    -0.05540
C2298       C  0.96785469  0.63032295  0.27505832     0.00380
C2299       C  0.97080025  0.65594664  0.26497601    -0.08190
C2300       C  0.94831499  0.66992920  0.25676067    -0.05560
C2301       C  0.92347607  0.65891680  0.25866878     0.00370
C2302       C  0.92066743  0.63343453  0.26900146    -0.08100
C2303       C  0.89432325  0.62050706  0.27181744     0.62280
H2304       H  0.94073846  0.60028971  0.28488176     0.12980
H2305       H  0.94995768  0.68928021  0.24826952     0.12990
C2306       C  0.99736244  0.66779913  0.26174986     0.62520
F2307       F  0.89601031  0.59697422  0.28530490    -0.22650
F2308       F  0.88358156  0.61552296  0.24725342    -0.19980
F2309       F  0.87793356  0.63666676  0.28569694    -0.19660
F2310       F  0.01279161  0.65110299  0.24722130    -0.19710
F2311       F  0.00869870  0.67177024  0.28621314    -0.20030
F2312       F  0.99610667  0.69162546  0.24878132    -0.22700
C2313       C  0.95353355  0.45543579  0.30065100    -0.05540
C2314       C  0.97354004  0.45938473  0.28285691     0.00380
C2315       C  0.97151607  0.44985233  0.25682471    -0.08190
C2316       C  0.94904402  0.43622288  0.24953843    -0.05560
C2317       C  0.92796200  0.43408565  0.26676014     0.00370
C2318       C  0.93019576  0.44402725  0.29283560    -0.08100
C2319       C  0.90772162  0.44491185  0.31178159     0.62280
H2320       H  0.95544140  0.46381812  0.32018547     0.12980
H2321       H  0.94693163  0.42877169  0.22963245     0.12990
C2322       C  0.99246449  0.45482020  0.23676331     0.62520
F2323       F  0.91292569  0.46021932  0.33370400    -0.22650
F2324       F  0.90276507  0.42000421  0.32067669    -0.19980
F2325       F  0.88610382  0.45542824  0.29923573    -0.19660
F2326       F  0.01545494  0.44397996  0.24567632    -0.19710
F2327       F  0.99564286  0.48139010  0.23317653    -0.20030
F2328       F  0.98654588  0.44386907  0.21248389    -0.22700
C2329       C  0.12490872  0.46864137  0.40669529    -0.05540
C2330       C  0.10567078  0.46074832  0.38835661     0.00380
C2331       C  0.10583454  0.43413584  0.37969666    -0.08190
C2332       C  0.12625783  0.41773686  0.38797929    -0.05560
C2333       C  0.14521688  0.42584716  0.40598548     0.00370
C2334       C  0.14435698  0.45152912  0.41609090    -0.08100
C2335       C  0.16305845  0.46183563  0.43687780     0.62280
H2336       H  0.12473772  0.48846737  0.41417427     0.12980
H2337       H  0.12698410  0.39759969  0.38144229     0.12990
C2338       C  0.08477310  0.42213959  0.36240122     0.62520
F2339       F  0.17439125  0.48447979  0.42770029    -0.22650
F2340       F  0.18267375  0.44435583  0.44330737    -0.19980
F2341       F  0.14949802  0.46758192  0.45955725    -0.19660
F2342       F  0.08495823  0.43347462  0.33778127    -0.19710
F2343       F  0.06081537  0.42554249  0.37388925    -0.20030
F2344       F  0.08834232  0.39552890  0.35885225    -0.22700
C2345       C  0.13248019  0.46532586  0.29799321    -0.05540
C2346       C  0.10706863  0.46006871  0.28978810     0.00380
C2347       C  0.10210712  0.43771038  0.27399412    -0.08190
C2348       C  0.12339558  0.42350674  0.26434004    -0.05560
C2349       C  0.14895496  0.43052648  0.27053746     0.00370
C2350       C  0.15364518  0.45108468  0.28869763    -0.08100
C2351       C  0.18014159  0.45994000  0.29846312     0.62280
H2352       H  0.13599074  0.48173432  0.31108370     0.12980
H2353       H  0.12007138  0.40751533  0.25071901     0.12990
C2354       C  0.07546821  0.42820892  0.26579740     0.62520
F2355       F  0.18310814  0.48623504  0.29290011    -0.22650
F2356       F  0.20060563  0.44662396  0.28746026    -0.19980
F2357       F  0.18159628  0.45652660  0.32553466    -0.19660
F2358       F  0.07322743  0.42876793  0.23856522    -0.19710
F2359       F  0.05559027  0.44288466  0.27604971    -0.20030
F2360       F  0.07250749  0.40272249  0.27438271    -0.22700
C2361       C  0.11928460  0.62110900  0.25997182    -0.05540
C2362       C  0.10034628  0.63399266  0.27478402     0.00380
C2363       C  0.10305923  0.66136229  0.27878369    -0.08190
C2364       C  0.12689013  0.67333846  0.27189353    -0.05560
C2365       C  0.14742846  0.65882487  0.26088422     0.00370
C2366       C  0.14331020  0.63190725  0.25508019    -0.08100
C2367       C  0.16422475  0.61300897  0.24576991     0.62280
H2368       H  0.11620862  0.60113901  0.25373295     0.12980
H2369       H  0.12953460  0.69411980  0.27471464     0.12990
C2370       C  0.08025221  0.67821179  0.28706828     0.62520
F2371       F  0.15928904  0.58763836  0.25382322    -0.22650
F2372       F  0.18777492  0.61955298  0.25663605    -0.19980
F2373       F  0.16548579  0.61297311  0.21851705    -0.19660
F2374       F  0.07321922  0.67293231  0.31272523    -0.19710
F2375       F  0.05947880  0.67333552  0.27042507    -0.20030
F2376       F  0.08582556  0.70458599  0.28533173    -0.22700
C2377       C  0.95848850  0.63691341  0.41013945    -0.05540
C2378       C  0.96786880  0.63749566  0.38418764     0.00380
C2379       C  0.95637995  0.65540151  0.36602437    -0.08190
C2380       C  0.93788540  0.67338612  0.37470838    -0.05560
C2381       C  0.92854529  0.67297620  0.40045317     0.00370
C2382       C  0.93834587  0.65375659  0.41840400    -0.07380
C2383       C  0.92783260  0.64957220  0.44595148     0.62280
H2384       H  0.96632800  0.62251033  0.42384150     0.12980
H2385       H  0.93063665  0.68821173  0.36121129     0.12990
C2386       C  0.96169799  0.65394544  0.33698772     0.62520
F2387       F  0.92354159  0.62320439  0.45001920    -0.22650
F2388       F  0.90457732  0.66242368  0.44995469    -0.19980
F2389       F  0.94581641  0.65811453  0.46438205    -0.19660
F2390       F  0.95787540  0.62845597  0.32925457    -0.19710
F2391       F  0.98681546  0.66157830  0.33234288    -0.20030
F2392       F  0.94522689  0.66975961  0.32209940    -0.22700
C2393       C  0.23094838  0.61067032  0.18384830    -0.05540
C2394       C  0.22202796  0.61560493  0.15789428     0.00380
C2395       C  0.20715861  0.63882858  0.15324418    -0.08190
C2396       C  0.20429990  0.65692699  0.17399296    -0.05560
C2397       C  0.21619968  0.65321309  0.19879190     0.00370
C2398       C  0.23068512  0.63002587  0.20347022    -0.08100
C2399       C  0.24772973  0.62636830  0.22795345     0.62280
H2400       H  0.24109816  0.59252351  0.18793557     0.12980
H2401       H  0.19243425  0.67427058  0.17115697     0.12990
C2402       C  0.19327155  0.64442374  0.12721162     0.62520
F2403       F  0.25952844  0.60199659  0.22869558    -0.22650
F2404       F  0.23364277  0.62899298  0.25068513    -0.19980
F2405       F  0.26705894  0.64491418  0.22786772    -0.19660
F2406       F  0.18038358  0.62234243  0.11863609    -0.19710
F2407       F  0.21091326  0.65219635  0.10853660    -0.20030
F2408       F  0.17503463  0.66423041  0.12957329    -0.22700
C2409       C  0.21686009  0.43621351  0.17276907    -0.05540
C2410       C  0.20451697  0.44719941  0.19469473     0.00380
C2411       C  0.20048792  0.47493730  0.19525300    -0.08190
C2412       C  0.20829548  0.49000108  0.17354652    -0.05560
C2413       C  0.22112619  0.47900572  0.15212853     0.00370
C2414       C  0.22599287  0.45162163  0.15185021    -0.08100
C2415       C  0.24177881  0.43862708  0.13037570     0.62280
H2416       H  0.21967873  0.41524153  0.17230410     0.12980
H2417       H  0.20500943  0.51094311  0.17343236     0.12990
C2418       C  0.18935766  0.48964124  0.21867140     0.62520
F2419       F  0.24742708  0.41274629  0.13624346    -0.22650
F2420       F  0.26505976  0.45139769  0.12726817    -0.19980
F2421       F  0.22792724  0.43921571  0.10697111    -0.19660
F2422       F  0.19663321  0.51564423  0.21853413    -0.19710
F2423       F  0.19836949  0.47903141  0.24211346    -0.20030
F2424       F  0.16259523  0.48907265  0.21769250    -0.22700
C2425       C  0.32375494  0.45071742  0.19766837    -0.05540
C2426       C  0.34909301  0.44164551  0.19341064     0.00380
C2427       C  0.36604569  0.45811159  0.17904355    -0.08190
C2428       C  0.35522379  0.47758164  0.16271789    -0.05560
C2429       C  0.32894971  0.48436235  0.16423155     0.00370
C2430       C  0.31411654  0.47322803  0.18483143    -0.08100
C2431       C  0.28811547  0.48417866  0.19273265     0.62280
H2432       H  0.31089197  0.43953070  0.20990262     0.12980
H2433       H  0.36752460  0.48793998  0.14904743     0.12990
C2434       C  0.39536238  0.45670121  0.18109529     0.62520
F2435       F  0.27779332  0.47103894  0.21407397    -0.22650
F2436       F  0.27118922  0.48197647  0.17189243    -0.19980
F2437       F  0.29064562  0.51018383  0.19962988    -0.19660
F2438       F  0.40553191  0.44816885  0.15746233    -0.19710
F2439       F  0.40373071  0.44044072  0.20135217    -0.20030
F2440       F  0.40488282  0.48138763  0.18634961    -0.22700
C2441       C  0.41420554  0.72668195  0.17075600    -0.05540
C2442       C  0.42188495  0.71241279  0.19295838     0.00380
C2443       C  0.44848840  0.70804274  0.19828682    -0.08190
C2444       C  0.46679133  0.71750087  0.18017291    -0.05560
C2445       C  0.45899612  0.73107109  0.15720052     0.00370
C2446       C  0.43213783  0.73679007  0.15308786    -0.08100
C2447       C  0.42060514  0.75365220  0.13115138     0.62280
H2448       H  0.39366073  0.72998152  0.16716675     0.12980
H2449       H  0.48724912  0.71367836  0.18339676     0.12990
C2450       C  0.45721063  0.69334437  0.22284247     0.62520
F2451       F  0.40655035  0.73806795  0.11401606    -0.22650
F2452       F  0.43869753  0.76710433  0.11706792    -0.19980
F2453       F  0.40405993  0.77206959  0.14191805    -0.19660
F2454       F  0.44780719  0.66811962  0.22211600    -0.19710
F2455       F  0.44780539  0.70585464  0.24496626    -0.20030
F2456       F  0.48394890  0.69206744  0.22501354    -0.22700
C2457       C  0.35824263  0.60300256  0.17417886    -0.05540
C2458       C  0.33330452  0.60797682  0.16402122     0.00380
C2459       C  0.31969918  0.63042645  0.17240717    -0.08190
C2460       C  0.33139538  0.64750178  0.19022697    -0.05560
C2461       C  0.35662039  0.64335709  0.19987370     0.00370
C2462       C  0.37000060  0.62003668  0.19260488    -0.08100
C2463       C  0.39649058  0.61230925  0.20342346     0.62280
H2464       H  0.36867651  0.58582587  0.16752418     0.12980
H2465       H  0.32145924  0.66548048  0.19500236     0.12990
C2466       C  0.29304874  0.63672224  0.16174926     0.62520
F2467       F  0.39614269  0.58644530  0.21144521    -0.22650
F2468       F  0.40386825  0.62711312  0.22499149    -0.19980
F2469       F  0.41470398  0.61500357  0.18380085    -0.19660
F2470       F  0.27807196  0.61520277  0.16564604    -0.19710
F2471       F  0.29413869  0.64216909  0.13509145    -0.20030
F2472       F  0.28157724  0.65773375  0.17434933    -0.22700
C2473       C  0.26731124  0.72389538  0.30478442    -0.05540
C2474       C  0.26343281  0.75059117  0.29920103     0.00380
C2475       C  0.24172298  0.75787915  0.28294560    -0.08190
C2476       C  0.22559773  0.73831759  0.27241328    -0.05560
C2477       C  0.22971810  0.71185390  0.27773132     0.00370
C2478       C  0.25047026  0.70443686  0.29475670    -0.08100
C2479       C  0.25440659  0.67613583  0.30256985     0.62280
H2480       H  0.28366852  0.71836870  0.31711327     0.12980
H2481       H  0.20994252  0.74349134  0.25891376     0.12990
C2482       C  0.23623096  0.78580856  0.27447230     0.62520
F2483       F  0.27387126  0.67316081  0.32137068    -0.22650
F2484       F  0.26108079  0.66172546  0.28068799    -0.19980
F2485       F  0.23172503  0.66644034  0.31296061    -0.19660
F2486       F  0.25371231  0.79281790  0.25540125    -0.19710
F2487       F  0.23789469  0.80257141  0.29561896    -0.20030
F2488       F  0.21160485  0.78871371  0.26366972    -0.22700
C2489       C  0.30985490  0.75508878  0.25967436    -0.05540
C2490       C  0.31986070  0.76196478  0.28464073     0.00380
C2491       C  0.34380664  0.75007667  0.29305857    -0.08190
C2492       C  0.35681269  0.73307864  0.27602071    -0.05560
C2493       C  0.34646034  0.72580712  0.25169565     0.00370
C2494       C  0.32236664  0.73666975  0.24329789    -0.08100
C2495       C  0.30964907  0.72859086  0.21747560     0.62280
H2496       H  0.29170577  0.76372852  0.25333559     0.12980
H2497       H  0.37523621  0.72457302  0.28222013     0.12990
C2498       C  0.35681504  0.75293749  0.31981251     0.62520
F2499       F  0.28822180  0.74396940  0.21140102    -0.22650
F2500       F  0.30146177  0.70303133  0.21943283    -0.19980
F2501       F  0.32701254  0.73075114  0.19700650    -0.19660
F2502       F  0.35937452  0.72857554  0.33151585    -0.19710
F2503       F  0.34334175  0.76845266  0.33667029    -0.20030
F2504       F  0.38124201  0.76340339  0.31669753    -0.22700
C2505       C  0.35925504  0.82097630  0.30190953    -0.05540
C2506       C  0.33302455  0.81925958  0.29421288     0.00380
C2507       C  0.32454660  0.83405932  0.27173349    -0.08190
C2508       C  0.34262914  0.84819329  0.25702577    -0.05560
C2509       C  0.36853782  0.84986971  0.26476828     0.00370
C2510       C  0.37715213  0.83621312  0.28763567    -0.08100
C2511       C  0.40511396  0.83797624  0.29686148     0.62280
H2512       H  0.36547750  0.81092402  0.31968757     0.12980
H2513       H  0.33615833  0.85909656  0.23973779     0.12990
C2514       C  0.29668430  0.83730044  0.26282171     0.62520
F2515       F  0.40984688  0.82283813  0.31910699    -0.22650
F2516       F  0.41097519  0.86361218  0.30293787    -0.19980
F2517       F  0.42129624  0.82940050  0.27706051    -0.19660
F2518       F  0.29053616  0.86364154  0.26126954    -0.19710
F2519       F  0.27966052  0.82607179  0.27984986    -0.20030
F2520       F  0.29346011  0.82625494  0.23812312    -0.22700
C2521       C  0.23612014  0.73505752  0.38355931    -0.05540
C2522       C  0.21132249  0.74623287  0.38332339     0.00380
C2523       C  0.20636525  0.76883931  0.36773696    -0.08190
C2524       C  0.22647372  0.77912038  0.35249071    -0.05560
C2525       C  0.25130199  0.76791497  0.35261519     0.00370
C2526       C  0.25644349  0.74570448  0.36890804    -0.08100
C2527       C  0.28284311  0.73289031  0.37282613     0.62280
H2528       H  0.23978194  0.71797899  0.39581278     0.12980
H2529       H  0.22320191  0.79672198  0.34106356     0.12990
C2530       C  0.18026052  0.78257868  0.36754580     0.62520
F2531       F  0.28113315  0.70656381  0.36700849    -0.22650
F2532       F  0.29043555  0.73542880  0.39896661    -0.19980
F2533       F  0.30187661  0.74346613  0.35735163    -0.19660
F2534       F  0.17657581  0.79459728  0.39159497    -0.19710
F2535       F  0.16070875  0.76482650  0.36293478    -0.20030
F2536       F  0.17857739  0.80160267  0.34810059    -0.22700
C2537       C  0.13993813  0.65460492  0.41195190    -0.05540
C2538       C  0.14533609  0.67466355  0.39386252     0.00380
C2539       C  0.13176166  0.67532950  0.36936260    -0.08190
C2540       C  0.11351035  0.65568213  0.36388901    -0.05560
C2541       C  0.10715492  0.63640299  0.38246929     0.00370
C2542       C  0.12055579  0.63593751  0.40715937    -0.08100
C2543       C  0.11377939  0.61689098  0.42906851     0.62280
H2544       H  0.15024486  0.65458768  0.43070558     0.12980
H2545       H  0.10400627  0.65520271  0.34481539     0.12990
C2546       C  0.13537648  0.69729150  0.34954082     0.62520
F2547       F  0.12491778  0.62392154  0.45299862    -0.22650
F2548       F  0.12268266  0.59217368  0.42292140    -0.19980
F2549       F  0.08722505  0.61635723  0.43239435    -0.19660
F2550       F  0.15975824  0.69578715  0.33871381    -0.19710
F2551       F  0.13204059  0.72118647  0.36169853    -0.20030
F2552       F  0.11761498  0.69607074  0.32907928    -0.22700
C2553       C  0.63678760  0.84505742  0.96305032    -0.05540
C2554       C  0.63344320  0.83310255  0.93850585     0.00380
C2555       C  0.61609446  0.81205768  0.93565144    -0.08190
C2556       C  0.60212724  0.80400403  0.95775915    -0.05560
C2557       C  0.60364589  0.81739387  0.98199540     0.00370
C2558       C  0.62161998  0.83833337  0.98477617    -0.08100
C2559       C  0.62413125  0.85482306  0.00959550     0.62280
H2560       H  0.65009044  0.86130692  0.96431204     0.12980
H2561       H  0.58900587  0.78769696  0.95582782     0.12990
C2562       C  0.61119246  0.79919113  0.90907076     0.62520
F2563       F  0.64049544  0.87588147  0.00622155    -0.22650
F2564       F  0.63425166  0.83980163  0.02994711    -0.19980
F2565       F  0.60015946  0.86475647  0.01638505    -0.19660
F2566       F  0.63368938  0.78738043  0.90047604    -0.19710
F2567       F  0.60313699  0.81767614  0.89072628    -0.20030
F2568       F  0.59218827  0.78031424  0.91042904    -0.22700
C2569       C  0.63403202  0.93321128  0.88229030    -0.05540
C2570       C  0.62090326  0.90935864  0.88177535     0.00380
C2571       C  0.59359681  0.90908409  0.87869615    -0.08190
C2572       C  0.58040803  0.93294875  0.87585604    -0.05560
C2573       C  0.59349656  0.95692064  0.87455305     0.00370
C2574       C  0.62086194  0.95721055  0.87863672    -0.08100
C2575       C  0.63639487  0.98230535  0.87854506     0.62280
H2576       H  0.65482236  0.93276323  0.88541102     0.12980
H2577       H  0.55954045  0.93293636  0.87336182     0.12990
C2578       C  0.57838102  0.88372250  0.87716972     0.62520
F2579       F  0.66260447  0.97768554  0.88259862    -0.22650
F2580       F  0.62797254  0.99848138  0.89855539    -0.19980
F2581       F  0.63351608  0.99485370  0.85451190    -0.19660
F2582       F  0.57747211  0.87198834  0.90172582    -0.19710
F2583       F  0.58992825  0.86682257  0.85950697    -0.20030
F2584       F  0.55310104  0.88794802  0.86868213    -0.22700
C2585       C  0.45658297  0.82292636  0.92862885    -0.05540
C2586       C  0.43571283  0.83918572  0.93467281     0.00380
C2587       C  0.43105351  0.84636391  0.96099251    -0.08190
C2588       C  0.44802539  0.83703410  0.98079024    -0.05560
C2589       C  0.46968808  0.82106644  0.97500727     0.00370
C2590       C  0.47395536  0.81374611  0.94809238    -0.08100
C2591       C  0.49649595  0.79669054  0.93909979     0.62280
H2592       H  0.45952608  0.81816742  0.90804386     0.12980
H2593       H  0.44442351  0.84250735  0.00103690     0.12990
C2594       C  0.40816305  0.86369998  0.96794302     0.62520
F2595       F  0.49662475  0.79333504  0.91197285    -0.22650
F2596       F  0.49471738  0.77214405  0.95026338    -0.19980
F2597       F  0.51978695  0.80810275  0.94612611    -0.19660
F2598       F  0.38552046  0.85254914  0.95859824    -0.19710
F2599       F  0.41096353  0.88808526  0.95656134    -0.20030
F2600       F  0.40597033  0.86701136  0.99494441    -0.22700
C2601       C  0.42248558  0.93211360  0.87108608    -0.05540
C2602       C  0.43452520  0.90773404  0.86808897     0.00380
C2603       C  0.46035151  0.90619858  0.85948479    -0.08190
C2604       C  0.47403977  0.92938862  0.85605008    -0.05560
C2605       C  0.46264292  0.95426789  0.85983542     0.00370
C2606       C  0.43589699  0.95562415  0.86654429    -0.08100
C2607       C  0.42124047  0.98131398  0.86870408     0.62280
H2608       H  0.40262248  0.93250812  0.87773825     0.12980
H2609       H  0.49417710  0.92792119  0.85055483     0.12990
C2610       C  0.47348441  0.88006073  0.85402726     0.62520
F2611       F  0.39516084  0.97758181  0.87346490    -0.22650
F2612       F  0.42314983  0.99507412  0.84527338    -0.19980
F2613       F  0.43129930  0.99585307  0.88933771    -0.19660
F2614       F  0.45845566  0.86583628  0.83655215    -0.19710
F2615       F  0.47669145  0.86600944  0.87717718    -0.20030
F2616       F  0.49766539  0.88313339  0.84293149    -0.22700
C2617       C  0.20861968  0.63842225  0.94707016    -0.05540
C2618       C  0.22809790  0.63975781  0.92786501     0.00380
C2619       C  0.25376713  0.63173397  0.93445617    -0.08190
C2620       C  0.25856303  0.62202834  0.95987779    -0.05560
C2621       C  0.23861268  0.61836109  0.97805799     0.00370
C2622       C  0.21325089  0.62712412  0.97198098    -0.08100
C2623       C  0.19097906  0.62313355  0.99085824     0.62280
H2624       H  0.18926400  0.64503609  0.94178321     0.12980
H2625       H  0.27797995  0.61574481  0.96538712     0.12990
C2626       C  0.27582485  0.63134113  0.91474362     0.62520
F2627       F  0.16755145  0.63134006  0.98001433    -0.22650
F2628       F  0.19532423  0.63726038  0.01369289    -0.19980
F2629       F  0.18887311  0.59689112  0.99707306    -0.19660
F2630       F  0.28440060  0.65642321  0.91012863    -0.19710
F2631       F  0.26772479  0.62005460  0.89134901    -0.20030
F2632       F  0.29684213  0.61691903  0.92397639    -0.22700
C2633       C  0.23049615  0.36921101  0.85981681    -0.05540
C2634       C  0.24012635  0.39468198  0.85927081     0.00380
C2635       C  0.26395024  0.39964181  0.84671559    -0.08190
C2636       C  0.27760423  0.37855625  0.83540373    -0.05560
C2637       C  0.26794865  0.35293325  0.83589211     0.00370
C2638       C  0.24380318  0.34816743  0.84832256    -0.08100
C2639       C  0.23071270  0.32171342  0.85030545     0.62280
H2640       H  0.21202650  0.36575236  0.86917677     0.12980
H2641       H  0.29584742  0.38198352  0.82573697     0.12990
C2642       C  0.27441951  0.42718360  0.84465984     0.62520
F2643       F  0.22721697  0.31556508  0.87662792    -0.22650
F2644       F  0.24448098  0.30157997  0.83889382    -0.19980
F2645       F  0.20661772  0.32313972  0.83813290    -0.19660
F2646       F  0.27926522  0.43697927  0.86962329    -0.19710
F2647       F  0.25645517  0.44305844  0.83185908    -0.20030
F2648       F  0.29727331  0.42796728  0.83064896    -0.22700
C2649       C  0.22191067  0.48730107  0.92721065    -0.05540
C2650       C  0.21792336  0.46036086  0.93028131     0.00380
C2651       C  0.21600080  0.44964776  0.95592110    -0.08190
C2652       C  0.22042835  0.46606823  0.97777740    -0.05560
C2653       C  0.22599740  0.49280850  0.97463076     0.00370
C2654       C  0.22514290  0.50394979  0.94892229    -0.08100
C2655       C  0.22748117  0.53319052  0.94402909     0.62280
H2656       H  0.22227514  0.49532789  0.90739855     0.12980
H2657       H  0.22072286  0.45779305  0.99746996     0.12990
C2658       C  0.20915445  0.42116810  0.96012066     0.62520
F2659       F  0.21756433  0.54010190  0.91944731    -0.22650
F2660       F  0.25320418  0.54051879  0.94503299    -0.19980
F2661       F  0.21370747  0.54699084  0.96274557    -0.19660
F2662       F  0.22838325  0.40529266  0.95004489    -0.19710
F2663       F  0.18593092  0.41573481  0.94745809    -0.20030
F2664       F  0.20651064  0.41520713  0.98662631    -0.22700
C2665       C  0.94478951  0.44992634  0.74760173    -0.05540
C2666       C  0.93981061  0.47555138  0.73899469     0.00380
C2667       C  0.91530721  0.48153975  0.72726509    -0.08190
C2668       C  0.89703091  0.46125409  0.72397571    -0.05560
C2669       C  0.90211469  0.43566600  0.73285525     0.00370
C2670       C  0.92621360  0.43004778  0.74539384    -0.08100
C2671       C  0.93257869  0.40291198  0.75586673     0.62280
H2672       H  0.96360390  0.44554311  0.75614617     0.12980
H2673       H  0.87880067  0.46503412  0.71383557     0.12990
C2674       C  0.90891205  0.50880010  0.71708429     0.62520
F2675       F  0.95659392  0.40187475  0.76826986    -0.22650
F2676       F  0.93284967  0.38528228  0.73534090    -0.19980
F2677       F  0.91418706  0.39550269  0.77399067    -0.19660
F2678       F  0.92841612  0.51737471  0.70074704    -0.19710
F2679       F  0.90639027  0.52585242  0.73803788    -0.20030
F2680       F  0.88590850  0.50935304  0.70275919    -0.22700
C2681       C  0.10979981  0.45178612  0.73834430    -0.05540
C2682       C  0.11736786  0.47802237  0.73982272     0.00380
C2683       C  0.14448741  0.48378828  0.74092624    -0.08190
C2684       C  0.16249944  0.46313816  0.73789476    -0.05560
C2685       C  0.15454039  0.43717289  0.73566757     0.00370
C2686       C  0.12773722  0.43125110  0.73710719    -0.08100
C2687       C  0.11654324  0.40380945  0.73762578     0.62280
H2688       H  0.08939687  0.44694624  0.73905740     0.12980
H2689       H  0.18304596  0.46707357  0.73679975     0.12990
C2690       C  0.15484882  0.51123484  0.74529823     0.62520
F2691       F  0.10246658  0.40073310  0.76048315    -0.22650
F2692       F  0.13501558  0.38423467  0.73714924    -0.19980
F2693       F  0.09996423  0.40057555  0.71625950    -0.19660
F2694       F  0.14937818  0.51932402  0.77069121    -0.19710
F2695       F  0.14379342  0.52836878  0.72719121    -0.20030
F2696       F  0.18146594  0.51232178  0.74243182    -0.22700
C2697       C  0.14307417  0.62878526  0.87116308    -0.05540
C2698       C  0.16451804  0.62927819  0.85423137     0.00380
C2699       C  0.16253201  0.61780172  0.82886668    -0.08190
C2700       C  0.13875525  0.60716827  0.82116480    -0.05560
C2701       C  0.11758594  0.60569306  0.83837742     0.00370
C2702       C  0.11967525  0.61668116  0.86391526    -0.08100
C2703       C  0.09791184  0.61496379  0.88373904     0.62280
H2704       H  0.14496283  0.63778280  0.89041560     0.12980
H2705       H  0.13677781  0.59933687  0.80138895     0.12990
C2706       C  0.18515825  0.61556218  0.80993023     0.62520
F2707       F  0.10534706  0.62432121  0.90829082    -0.22650
F2708       F  0.09057237  0.58919217  0.88683319    -0.19980
F2709       F  0.07692220  0.62965936  0.87501674    -0.19660
F2710       F  0.20810380  0.61055645  0.82344142    -0.19710
F2711       F  0.18734482  0.63839120  0.79551632    -0.20030
F2712       F  0.18151901  0.59525083  0.79226783    -0.22700
C2713       C  0.14108807  0.49524692  0.83799991    -0.05540
C2714       C  0.11816044  0.48107773  0.83398062     0.00380
C2715       C  0.11875607  0.45344835  0.83718450    -0.08190
C2716       C  0.14195636  0.44138895  0.84587040    -0.05560
C2717       C  0.16438344  0.45592886  0.85065959     0.00370
C2718       C  0.16436495  0.48310985  0.84542130    -0.08100
C2719       C  0.18816576  0.50032827  0.84780073     0.62280
H2720       H  0.14097329  0.51625784  0.83506993     0.12980
H2721       H  0.14247386  0.42064428  0.85018585     0.12990
C2722       C  0.09529970  0.43664645  0.83162664     0.62520
F2723       F  0.19024913  0.51547928  0.82526141    -0.22650
F2724       F  0.21097385  0.48622193  0.85058266    -0.19980
F2725       F  0.18551648  0.51666406  0.86932618    -0.19660
F2726       F  0.08578569  0.44186428  0.80652056    -0.19710
F2727       F  0.07652227  0.44182620  0.85013887    -0.20030
F2728       F  0.10121106  0.41023622  0.83297004    -0.22700
C2729       C  0.13491521  0.66184113  0.73987124    -0.05540
C2730       C  0.15723101  0.65213578  0.72784524     0.00380
C2731       C  0.16015146  0.62493940  0.72415020    -0.08190
C2732       C  0.13961038  0.60831811  0.73123086    -0.05560
C2733       C  0.11619154  0.61829273  0.74125391     0.00370
C2734       C  0.11427976  0.64550729  0.74669782    -0.08100
C2735       C  0.09056235  0.65776306  0.75914223     0.62280
H2736       H  0.13313750  0.68281112  0.74232101     0.12980
H2737       H  0.14134940  0.58745514  0.72809602     0.12990
C2738       C  0.18473920  0.61384085  0.71246811     0.62520
F2739       F  0.09484248  0.68341218  0.76659059    -0.22650
F2740       F  0.08374638  0.64400412  0.78148190    -0.19980
F2741       F  0.07037870  0.65778178  0.74110085    -0.19660
F2742       F  0.20577343  0.62135844  0.72774455    -0.19710
F2743       F  0.18772096  0.62317317  0.68704709    -0.20030
F2744       F  0.18438226  0.58680287  0.71157301    -0.22700
C2745       C  0.27618035  0.70825746  0.82416723    -0.05540
C2746       C  0.26499971  0.73327030  0.82247357     0.00380
C2747       C  0.23922465  0.73729905  0.83193595    -0.08190
C2748       C  0.22621396  0.71597718  0.84276381    -0.05560
C2749       C  0.23787600  0.69148752  0.84512293     0.00370
C2750       C  0.26297862  0.68711227  0.83509495    -0.08100
C2751       C  0.27675837  0.66081749  0.83544836     0.62280
H2752       H  0.29564321  0.70518297  0.81699065     0.12980
H2753       H  0.20679968  0.71838282  0.85035644     0.12990
C2754       C  0.22501505  0.76352519  0.83235278     0.62520
F2755       F  0.28609762  0.65541190  0.81055628    -0.22650
F2756       F  0.26080672  0.64044773  0.84243992    -0.19980
F2757       F  0.29743046  0.66178052  0.85302214    -0.19660
F2758       F  0.21406569  0.76870181  0.80812270    -0.19710
F2759       F  0.24122122  0.78355920  0.83921191    -0.20030
F2760       F  0.20508444  0.76361160  0.85044012    -0.22700
C2761       C  0.23388634  0.76275241  0.75963114    -0.05540
C2762       C  0.25778061  0.75156604  0.76714974     0.00380
C2763       C  0.26501804  0.72730670  0.75541735    -0.08190
C2764       C  0.24681317  0.71396072  0.73954816    -0.05560
C2765       C  0.22217943  0.72435109  0.73389876     0.00370
C2766       C  0.21552578  0.74930767  0.74407957    -0.08100
C2767       C  0.18873402  0.76132108  0.73988790     0.62280
H2768       H  0.22922312  0.78205615  0.76673257     0.12980
H2769       H  0.25206247  0.69522788  0.73109702     0.12990
C2770       C  0.29186800  0.71503835  0.75727605     0.62520
F2771       F  0.18486739  0.78280257  0.75596470    -0.22650
F2772       F  0.16986726  0.74319413  0.74573499    -0.19980
F2773       F  0.18563664  0.76954437  0.71406344    -0.19660
F2774       F  0.29007671  0.69026279  0.76799099    -0.19710
F2775       F  0.30924934  0.72921488  0.77223428    -0.20030
F2776       F  0.30182627  0.71285240  0.73213133    -0.22700
C2777       C  0.36347435  0.79587108  0.82695961    -0.05540
C2778       C  0.33726102  0.79917650  0.83360380     0.00380
C2779       C  0.33095624  0.81780558  0.85350783    -0.08190
C2780       C  0.35069253  0.83293827  0.86470855    -0.05560
C2781       C  0.37643813  0.82999144  0.85740048     0.00370
C2782       C  0.38319659  0.81125335  0.83825416    -0.08100
C2783       C  0.41099846  0.80809660  0.82943782     0.62280
H2784       H  0.36848826  0.78144487  0.81252767     0.12980
H2785       H  0.34597293  0.84719633  0.87977386     0.12990
C2786       C  0.30421208  0.82323466  0.86408232     0.62520
F2787       F  0.41357989  0.78864825  0.81067739    -0.22650
F2788       F  0.42670494  0.80174327  0.85083576    -0.19980
F2789       F  0.41932164  0.83129309  0.81847172    -0.19660
F2790       F  0.30478720  0.82157531  0.89136254    -0.19710
F2791       F  0.28618760  0.80589807  0.85523910    -0.20030
F2792       F  0.29645490  0.84817332  0.85678185    -0.22700
C2793       C  0.35740663  0.94132883  0.69000654    -0.05540
C2794       C  0.36752078  0.91769400  0.68086025     0.00380
C2795       C  0.37038902  0.91364898  0.65351009    -0.08190
C2796       C  0.36373151  0.93420622  0.63600359    -0.05560
C2797       C  0.35558489  0.95881482  0.64537824     0.00370
C2798       C  0.35200920  0.96225727  0.67296673    -0.08100
C2799       C  0.34408185  0.98814702  0.68503138     0.62280
H2800       H  0.35580157  0.94392938  0.71114730     0.12980
H2801       H  0.36579106  0.93153105  0.61492639     0.12990
C2802       C  0.38078715  0.88792511  0.64322518     0.62520
F2803       F  0.33780469  0.98568755  0.71143127    -0.22650
F2804       F  0.32263376  0.99836270  0.67196122    -0.19980
F2805       F  0.36467437  0.00515220  0.68341754    -0.19660
F2806       F  0.36514285  0.86778391  0.65164062    -0.19710
F2807       F  0.40570322  0.88379283  0.65273946    -0.20030
F2808       F  0.38138076  0.88749219  0.61591021    -0.22700
C2809       C  0.45588065  0.91761587  0.74449676    -0.05540
C2810       C  0.42960653  0.92019084  0.75107569     0.00380
C2811       C  0.42140558  0.94195539  0.76633136    -0.08190
C2812       C  0.44000234  0.95965428  0.77530695    -0.05560
C2813       C  0.46592259  0.95768835  0.76794648     0.00370
C2814       C  0.47430785  0.93632818  0.75244339    -0.08100
C2815       C  0.50213629  0.93411295  0.74325583     0.62280
H2816       H  0.46160309  0.90139675  0.73210856     0.12980
H2817       H  0.43396339  0.97601652  0.78743040     0.12990
C2818       C  0.39348429  0.94863392  0.77288057     0.62520
F2819       F  0.50547304  0.91351108  0.72593188    -0.22650
F2820       F  0.51851211  0.93008174  0.76468311    -0.19980
F2821       F  0.50910639  0.95686485  0.73041786    -0.19660
F2822       F  0.38992435  0.94542442  0.79971209    -0.19710
F2823       F  0.37559666  0.93372668  0.75948741    -0.20030
F2824       F  0.38844233  0.97446524  0.76633419    -0.22700
C2825       C  0.36120085  0.82728633  0.74732678    -0.05540
C2826       C  0.35886393  0.85363953  0.75436922     0.00380
C2827       C  0.34094348  0.86109817  0.77401682    -0.08190
C2828       C  0.32566635  0.84179330  0.78581054    -0.05560
C2829       C  0.32790087  0.81549575  0.77870370     0.00370
C2830       C  0.34613059  0.80780261  0.75927507    -0.08100
C2831       C  0.35003090  0.77934387  0.75108236     0.62280
H2832       H  0.37498122  0.82216726  0.73219787     0.12980
H2833       H  0.31171739  0.84701931  0.80073699     0.12990
C2834       C  0.33789010  0.88928620  0.78247153     0.62520
F2835       F  0.36911242  0.77678237  0.73226057    -0.22650
F2836       F  0.32759615  0.76921232  0.74056574    -0.19980
F2837       F  0.35723167  0.76417473  0.77242960    -0.19660
F2838       F  0.33198417  0.90471734  0.76074693    -0.19710
F2839       F  0.36069567  0.89759156  0.79412777    -0.20030
F2840       F  0.31827408  0.89244255  0.80062459    -0.22700
C2841       C  0.42081206  0.72898711  0.95969745    -0.05540
C2842       C  0.42882183  0.71094015  0.94069377     0.00380
C2843       C  0.45485884  0.70217631  0.94068902    -0.08190
C2844       C  0.47189981  0.71105801  0.96068442    -0.05560
C2845       C  0.46323523  0.72738036  0.98112766     0.00370
C2846       C  0.43736446  0.73703682  0.98028529    -0.08100
C2847       C  0.42672883  0.75506027  0.00136681     0.62280
H2848       H  0.40069299  0.73516996  0.95942880     0.12980
H2849       H  0.49185461  0.70438249  0.96117526     0.12990
C2850       C  0.46429023  0.68333501  0.91978673     0.62520
F2851       F  0.40272210  0.76529018  0.99430446    -0.22650
F2852       F  0.44328700  0.77572722  0.00550289    -0.19980
F2853       F  0.42395920  0.74131592  0.02463363    -0.19660
F2854       F  0.45932968  0.69376205  0.89500655    -0.19710
F2855       F  0.45157927  0.65975534  0.92205793    -0.20030
F2856       F  0.49065271  0.67856755  0.92210264    -0.22700
C2857       C  0.35824962  0.62202952  0.94269047    -0.05540
C2858       C  0.35965883  0.64870222  0.94863155     0.00380
C2859       C  0.34952814  0.65812074  0.97271412    -0.08190
C2860       C  0.33888860  0.64021555  0.99048666    -0.05560
C2861       C  0.33779480  0.61339222  0.98497363     0.00370
C2862       C  0.34728690  0.60402189  0.96044341    -0.08100
C2863       C  0.34645456  0.57524860  0.95312259     0.62280
H2864       H  0.36601961  0.61544092  0.92406786     0.12980
H2865       H  0.33119977  0.64713835  0.00902366     0.12990
C2866       C  0.35006289  0.68699500  0.97978331     0.62520
F2867       F  0.36004544  0.57015078  0.93027862    -0.22650
F2868       F  0.32108033  0.56769485  0.94886152    -0.19980
F2869       F  0.35735760  0.56029956  0.97321032    -0.19660
F2870       F  0.33895226  0.70164407  0.95960996    -0.19710
F2871       F  0.37532178  0.69490346  0.98383725    -0.20030
F2872       F  0.33649845  0.69218551  0.00261958    -0.22700
C2873       C  0.34139478  0.73413363  0.83497096    -0.05540
C2874       C  0.31863667  0.74564910  0.84507477     0.00380
C2875       C  0.31259193  0.74063989  0.87205692    -0.08190
C2876       C  0.33011664  0.72601194  0.88770150    -0.05560
C2877       C  0.35316968  0.71565465  0.87776529     0.00370
C2878       C  0.35877600  0.71927276  0.85075551    -0.08100
C2879       C  0.38266313  0.70707274  0.83852358     0.62280
H2880       H  0.34565489  0.73721786  0.81434389     0.12980
H2881       H  0.32571122  0.72262089  0.90832202     0.12990
C2882       C  0.28850109  0.74944275  0.88618710     0.62520
F2883       F  0.38319345  0.71092042  0.81146504    -0.22650
F2884       F  0.38297000  0.68044224  0.84327929    -0.19980
F2885       F  0.40475373  0.71803215  0.84929780    -0.19660
F2886       F  0.27172434  0.76305778  0.87035226    -0.19710
F2887       F  0.29536529  0.76518051  0.90726878    -0.20030
F2888       F  0.27561111  0.72777143  0.89562985    -0.22700
C2889       C  0.13567406  0.73216466  0.62143180    -0.05540
C2890       C  0.11495016  0.74457582  0.63435807     0.00380
C2891       C  0.11508981  0.74578785  0.66234646    -0.08190
C2892       C  0.13553762  0.73380347  0.67636043    -0.05560
C2893       C  0.15554165  0.72050652  0.66352201     0.00370
C2894       C  0.15590646  0.71968325  0.63569385    -0.08100
C2895       C  0.17745438  0.70553007  0.62144252     0.62280
H2896       H  0.13561190  0.73189847  0.60005708     0.12980
H2897       H  0.13567010  0.73388098  0.69775929     0.12990
C2898       C  0.09393770  0.75969488  0.67757584     0.62520
F2899       F  0.17463760  0.70744493  0.59428781    -0.22650
F2900       F  0.17742352  0.67934739  0.62828406    -0.19980
F2901       F  0.20104734  0.71622515  0.62856597    -0.19660
F2902       F  0.07103632  0.74609505  0.67494479    -0.19710
F2903       F  0.09062613  0.78487817  0.66809717    -0.20030
F2904       F  0.09982450  0.76131499  0.70426240    -0.22700
C2905       C  0.10805280  0.76606470  0.47372893    -0.05540
C2906       C  0.11559572  0.75992163  0.49971795     0.00380
C2907       C  0.14023118  0.74844991  0.50474478    -0.08190
C2908       C  0.15572071  0.74177548  0.48299688    -0.05560
C2909       C  0.14722494  0.74655636  0.45699423     0.00370
C2910       C  0.12328910  0.75935277  0.45217860    -0.08100
C2911       C  0.11343464  0.76519343  0.42435776     0.62280
H2912       H  0.08959460  0.77576810  0.47035231     0.12980
H2913       H  0.17404951  0.73171728  0.48601179     0.12990
C2914       C  0.14957156  0.74223809  0.53258755     0.62520
F2915       F  0.09049822  0.77937486  0.42437841    -0.22650
F2916       F  0.10895206  0.74220342  0.41085872    -0.19980
F2917       F  0.13157824  0.77966310  0.41104605    -0.19660
F2918       F  0.13137672  0.72720127  0.54535165    -0.19710
F2919       F  0.15338259  0.76517577  0.54642601    -0.20030
F2920       F  0.17277734  0.72851334  0.53269155    -0.22700
C2921       C  0.94170404  0.78276791  0.47418607    -0.05540
C2922       C  0.94220605  0.76980284  0.49854161     0.00380
C2923       C  0.92623406  0.74801770  0.50290808    -0.08190
C2924       C  0.91132626  0.73861958  0.48175451    -0.05560
C2925       C  0.91267940  0.75008450  0.45663634     0.00370
C2926       C  0.92704894  0.77326327  0.45287023    -0.08100
C2927       C  0.92823569  0.78696729  0.42625349     0.62280
H2928       H  0.95414057  0.79952664  0.47160735     0.12980
H2929       H  0.90021548  0.72087565  0.48401060     0.12990
C2930       C  0.92673015  0.73359758  0.52906246     0.62520
F2931       F  0.94469450  0.80822142  0.42689067    -0.22650
F2932       F  0.90387604  0.79601631  0.41908194    -0.19980
F2933       F  0.93709440  0.76985038  0.40724347    -0.19660
F2934       F  0.91997312  0.75052869  0.54911324    -0.19710
F2935       F  0.95139375  0.72384268  0.53383536    -0.20030
F2936       F  0.90961454  0.71288288  0.52923019    -0.22700
C2937       C  0.24417485  0.84339251  0.75091953    -0.05540
C2938       C  0.24924937  0.84199914  0.72411855     0.00380
C2939       C  0.26784537  0.82405224  0.71469960    -0.08190
C2940       C  0.27946471  0.80641928  0.73273900    -0.05560
C2941       C  0.27453354  0.80773109  0.75994679     0.00370
C2942       C  0.25699379  0.82730483  0.76913413    -0.08100
C2943       C  0.25022582  0.83226177  0.79757317     0.62280
H2944       H  0.23003404  0.85756402  0.75778027     0.12980
H2945       H  0.29218354  0.79147857  0.72546931     0.12990
C2946       C  0.27535555  0.82372132  0.68586720     0.62520
F2947       F  0.22429601  0.82690408  0.80139660    -0.22650
F2948       F  0.25473593  0.85818050  0.80369680    -0.19980
F2949       F  0.26466148  0.81738459  0.81455336    -0.19660
F2950       F  0.28519416  0.84780247  0.67885851    -0.19710
F2951       F  0.25388332  0.81844281  0.67034009    -0.20030
F2952       F  0.29409755  0.80497537  0.68081502    -0.22700
C2953       C  0.14632908  0.87613019  0.67335109    -0.05540
C2954       C  0.16809335  0.85954850  0.67189613     0.00380
C2955       C  0.16737802  0.83786014  0.65448945    -0.08190
C2956       C  0.14438178  0.83288898  0.64045549    -0.05560
C2957       C  0.12294385  0.85002914  0.64093151     0.00370
C2958       C  0.12412366  0.87246013  0.65738670    -0.08100
C2959       C  0.10301347  0.89327857  0.65729971     0.62280
H2960       H  0.14744551  0.89290025  0.68631039     0.12980
H2961       H  0.14335948  0.81560795  0.62821529     0.12990
C2962       C  0.19113089  0.82107030  0.64881673     0.62520
F2963       F  0.11056300  0.91544456  0.67091721    -0.22650
F2964       F  0.08114273  0.88368843  0.66925137    -0.19980
F2965       F  0.09713752  0.90074614  0.63163340    -0.19660
F2966       F  0.19739990  0.80575704  0.67046090    -0.19710
F2967       F  0.21181069  0.83688519  0.64257012    -0.20030
F2968       F  0.18703566  0.80444941  0.62766004    -0.22700
C2969       C  0.26409713  0.96336162  0.66824030    -0.05540
C2970       C  0.25859566  0.96489864  0.64105238     0.00380
C2971       C  0.24145825  0.94690636  0.62945624    -0.08190
C2972       C  0.23280475  0.92604025  0.64448966    -0.05560
C2973       C  0.23792345  0.92416018  0.67162332     0.00370
C2974       C  0.25310875  0.94374577  0.68413552    -0.08100
C2975       C  0.25783375  0.94533641  0.71371275     0.62280
H2976       H  0.27658881  0.97786460  0.67719373     0.12980
H2977       H  0.22175362  0.91079666  0.63486258     0.12990
C2978       C  0.23106139  0.95031934  0.60168964     0.62520
F2979       F  0.25378180  0.97074510  0.72211050    -0.22650
F2980       F  0.28321343  0.93829452  0.71935064    -0.19980
F2981       F  0.24144925  0.92953041  0.72793787    -0.19660
F2982       F  0.25030810  0.94494877  0.58371457    -0.19710
F2983       F  0.22218654  0.97569225  0.59828325    -0.20030
F2984       F  0.21044923  0.93373274  0.59694029    -0.22700
C2985       C  0.27467537  0.80599686  0.39638049    -0.05540
C2986       C  0.27187444  0.81764571  0.37125203     0.00380
C2987       C  0.25716341  0.84122442  0.36899776    -0.08190
C2988       C  0.24697293  0.85255371  0.39184506    -0.05560
C2989       C  0.24992816  0.84096550  0.41670379     0.00370
C2990       C  0.26407422  0.81736674  0.41923148    -0.08100
C2991       C  0.26799374  0.80444093  0.44591467     0.62280
H2992       H  0.28479335  0.78754665  0.39800544     0.12980
H2993       H  0.23572796  0.87049413  0.39013831     0.12990
C2994       C  0.25017548  0.85502053  0.34336739     0.62520
F2995       F  0.28403438  0.78271042  0.44445958    -0.22650
F2996       F  0.24438991  0.79653858  0.45555931    -0.19980
F2997       F  0.27912489  0.82197498  0.46334051    -0.19660
F2998       F  0.22348489  0.85630580  0.34073443    -0.19710
F2999       F  0.25963434  0.84268816  0.32147360    -0.20030
F3000       F  0.25978937  0.88018367  0.34393501    -0.22700
C3001       C  0.15023608  0.83699559  0.51302129    -0.05540
C3002       C  0.12624434  0.84772223  0.50442029     0.00380
C3003       C  0.12546045  0.86081956  0.47943815    -0.08190
C3004       C  0.14857781  0.86345503  0.46507725    -0.05560
C3005       C  0.17217584  0.85322244  0.47430436     0.00370
C3006       C  0.17310043  0.83957768  0.49854662    -0.08100
C3007       C  0.19840050  0.82838137  0.50947906     0.62280
H3008       H  0.15130279  0.82657833  0.53159529     0.12980
H3009       H  0.14870226  0.87430760  0.44669580     0.12990
C3010       C  0.10076236  0.87201059  0.46750145     0.62520
F3011       F  0.19523570  0.81628280  0.53369912    -0.22650
F3012       F  0.21635853  0.84808900  0.51274585    -0.19980
F3013       F  0.20797371  0.80999976  0.49215925    -0.19660
F3014       F  0.09058278  0.89067712  0.48419163    -0.19710
F3015       F  0.08335028  0.85200133  0.46340251    -0.20030
F3016       F  0.10482755  0.88394041  0.44334037    -0.22700
C3017       C  0.27039154  0.95607516  0.48122040    -0.05540
C3018       C  0.25876494  0.96323139  0.50505472     0.00380
C3019       C  0.23563983  0.95088568  0.51232580    -0.08190
C3020       C  0.22835869  0.92815668  0.49909596    -0.05560
C3021       C  0.24001678  0.92005016  0.47539204     0.00370
C3022       C  0.26006018  0.93607755  0.46510168    -0.08100
C3023       C  0.26979288  0.93446468  0.43701822     0.62280
H3024       H  0.28681319  0.96715608  0.47447794     0.12980
H3025       H  0.21291776  0.91699776  0.50773036     0.12990
C3026       C  0.21629993  0.96215486  0.53151911     0.62520
F3027       F  0.27363941  0.95938403  0.42718873    -0.22650
F3028       F  0.25219567  0.92254992  0.42024670    -0.19980
F3029       F  0.29310440  0.92102838  0.43674089    -0.19660
F3030       F  0.19480697  0.97084483  0.51742355    -0.19710
F3031       F  0.22581194  0.98286159  0.54598574    -0.20030
F3032       F  0.20841270  0.94284320  0.54855695    -0.22700
C3033       C  0.89457921  0.62529771  0.84095239    -0.05540
C3034       C  0.90240316  0.64674483  0.85594560     0.00380
C3035       C  0.92887828  0.65088367  0.86122619    -0.08190
C3036       C  0.94697415  0.63281834  0.85145952    -0.05560
C3037       C  0.93940095  0.61072164  0.83659835     0.00370
C3038       C  0.91238733  0.60690888  0.83129429    -0.08100
C3039       C  0.90166409  0.58350631  0.81634808     0.62280
H3040       H  0.87397173  0.62257067  0.83785515     0.12980
H3041       H  0.96732636  0.63610785  0.85540721     0.12990
C3042       C  0.93778513  0.67449289  0.87688602     0.62520
F3043       F  0.87483631  0.58306036  0.81611866    -0.22650
F3044       F  0.91012723  0.56065244  0.82828145    -0.19980
F3045       F  0.90953171  0.58426647  0.79037237    -0.19660
F3046       F  0.92868268  0.67308539  0.90240460    -0.19710
F3047       F  0.92829728  0.69702770  0.86501214    -0.20030
F3048       F  0.96452928  0.67614060  0.87813737    -0.22700
C3049       C  0.84390157  0.65667080  0.95493530    -0.05540
C3050       C  0.84524120  0.64351411  0.93076717     0.00380
C3051       C  0.84323592  0.61592686  0.93018782    -0.08190
C3052       C  0.84107300  0.60244158  0.95405902    -0.05560
C3053       C  0.83782696  0.61538701  0.97824345     0.00370
C3054       C  0.83992615  0.64314253  0.97886337    -0.08100
C3055       C  0.83802240  0.65861372  0.00427141     0.62280
H3056       H  0.84622941  0.67768807  0.95484811     0.12980
H3057       H  0.84016358  0.58132171  0.95351519     0.12990
C3058       C  0.84281074  0.59974633  0.90498693     0.62520
F3059       F  0.84008932  0.68524438  0.99995423    -0.22650
F3060       F  0.85790750  0.65115382  0.02121548    -0.19980
F3061       F  0.81443509  0.65425971  0.01602979    -0.19660
F3062       F  0.86649807  0.58735162  0.90215391    -0.19710
F3063       F  0.83753834  0.61448731  0.88263220    -0.20030
F3064       F  0.82371463  0.58095272  0.90652789    -0.22700
C3065       C  0.84005400  0.36001474  0.86187649    -0.05540
C3066       C  0.82954231  0.38510107  0.85976493     0.00380
C3067       C  0.80637872  0.38924798  0.84514797    -0.08190
C3068       C  0.79433889  0.36764486  0.83302914    -0.05560
C3069       C  0.80455615  0.34218814  0.83566294     0.00370
C3070       C  0.82763631  0.33828174  0.85090101    -0.08100
C3071       C  0.83996137  0.31185989  0.85657484     0.62280
H3072       H  0.85804080  0.35736690  0.87288033     0.12980
H3073       H  0.77643637  0.37030750  0.82197386     0.12990
C3074       C  0.79449529  0.41630125  0.84265777     0.62520
F3075       F  0.84999503  0.31109041  0.88204097    -0.22650
F3076       F  0.86010734  0.30797972  0.83939018    -0.19980
F3077       F  0.82260705  0.29165644  0.85432219    -0.19660
F3078       F  0.81188626  0.43300284  0.83088339    -0.19710
F3079       F  0.78851112  0.42566103  0.86745630    -0.20030
F3080       F  0.77200054  0.41618562  0.82750325    -0.22700
C3081       C  0.92058955  0.43902505  0.84758794    -0.05540
C3082       C  0.89889105  0.45234244  0.85701906     0.00380
C3083       C  0.89698118  0.47985844  0.85425952    -0.08190
C3084       C  0.91788881  0.49329335  0.84336869    -0.05560
C3085       C  0.94026653  0.48020627  0.83497381     0.00370
C3086       C  0.94156615  0.45247390  0.83673595    -0.08100
C3087       C  0.96510444  0.43692691  0.82818665     0.62280
H3088       H  0.92149282  0.41799560  0.85004628     0.12980
H3089       H  0.91716665  0.51437650  0.84215286     0.12990
C3090       C  0.87369079  0.49549340  0.86365728     0.62520
F3091       F  0.96001105  0.41042989  0.82672233    -0.22650
F3092       F  0.98495923  0.44046070  0.84632203    -0.19980
F3093       F  0.97293562  0.44503563  0.80355011    -0.19660
F3094       F  0.87677553  0.50132491  0.89014023    -0.19710
F3095       F  0.85095634  0.48173675  0.86000086    -0.20030
F3096       F  0.87119016  0.51873493  0.84977487    -0.22700
C3097       C  0.85176192  0.46049382  0.98084475    -0.05540
C3098       C  0.83652079  0.48291249  0.97535076     0.00380
C3099       C  0.82754692  0.48699350  0.94870179    -0.08190
C3100       C  0.83165673  0.46726314  0.93013896    -0.05560
C3101       C  0.84694478  0.44536034  0.93564663     0.00370
C3102       C  0.85788269  0.44206598  0.96117879    -0.08100
C3103       C  0.87621099  0.41990565  0.96863348     0.62280
H3104       H  0.85932405  0.45737396  0.00065903     0.12980
H3105       H  0.82433887  0.46957992  0.91011409     0.12990
C3106       C  0.81475606  0.51210447  0.93855863     0.62520
F3107       F  0.90009173  0.43015683  0.97544281    -0.22650
F3108       F  0.87968039  0.40211920  0.94846651    -0.19980
F3109       F  0.86652859  0.40661991  0.99014990    -0.19660
F3110       F  0.82965966  0.53337566  0.94554848    -0.19710
F3111       F  0.79017997  0.51463289  0.94856860    -0.20030
F3112       F  0.81228367  0.51256966  0.91129210    -0.22700
C3113       C  0.81526793  0.93749549  0.69194197    -0.05540
C3114       C  0.84102846  0.93785262  0.70092978     0.00380
C3115       C  0.85581254  0.96090168  0.69718821    -0.08190
C3116       C  0.84579628  0.98076099  0.68057189    -0.05560
C3117       C  0.82079927  0.97906815  0.66966787     0.00370
C3118       C  0.80487694  0.95790623  0.67671447    -0.08100
C3119       C  0.77702022  0.95694512  0.66775591     0.62280
H3120       H  0.80379639  0.92015942  0.69508542     0.12980
H3121       H  0.85769794  0.99745416  0.67577336     0.12990
C3122       C  0.88195494  0.96539795  0.71024076     0.62520
F3123       F  0.76452794  0.93469631  0.67640004    -0.22650
F3124       F  0.77556538  0.95767194  0.64051579    -0.19980
F3125       F  0.76468012  0.97844300  0.67815207    -0.19660
F3126       F  0.90092806  0.96624158  0.69121442    -0.19710
F3127       F  0.88829055  0.94620554  0.72852097    -0.20030
F3128       F  0.88147037  0.98907532  0.72337237    -0.22700
C3129       C  0.92511168  0.85894260  0.68529839    -0.05540
C3130       C  0.90233337  0.86920402  0.67411193     0.00380
C3131       C  0.90048212  0.87252552  0.64633215    -0.08190
C3132       C  0.92212247  0.86633603  0.63085700    -0.05560
C3133       C  0.94528429  0.85644066  0.64197623     0.00370
C3134       C  0.94650823  0.85191647  0.66974197    -0.08100
C3135       C  0.96992256  0.83955712  0.68326990     0.62280
H3136       H  0.92603349  0.85660992  0.70655480     0.12980
H3137       H  0.92109660  0.86941422  0.60970844     0.12990
C3138       C  0.87572652  0.88216966  0.63280416     0.62520
F3139       F  0.96473959  0.83220623  0.70899691    -0.22650
F3140       F  0.98969564  0.85750057  0.68407735    -0.19980
F3141       F  0.97774808  0.81738524  0.66986982    -0.19660
F3142       F  0.87277297  0.90875767  0.63649732    -0.19710
F3143       F  0.85451033  0.86936127  0.64293822    -0.20030
F3144       F  0.87610096  0.87759582  0.60588212    -0.22700
C3145       C  0.83974905  0.83524360  0.38706997    -0.05540
C3146       C  0.83814527  0.86284866  0.38617346     0.00380
C3147       C  0.82539257  0.87403151  0.36334161    -0.08190
C3148       C  0.81223532  0.85694128  0.34547679    -0.05560
C3149       C  0.81514480  0.82948874  0.34778123     0.00370
C3150       C  0.83652535  0.82159659  0.36340129    -0.08100
C3151       C  0.86228843  0.81856006  0.34932042     0.62280
H3152       H  0.85025431  0.82552422  0.40291805     0.12980
H3153       H  0.79940700  0.86486463  0.33036656     0.12990
C3154       C  0.82634661  0.90287564  0.35665162     0.62520
F3155       F  0.87587639  0.84183966  0.34971773    -0.22650
F3156       F  0.85878843  0.81212005  0.32306322    -0.19980
F3157       F  0.87736007  0.79985002  0.36198011    -0.19660
F3158       F  0.85065638  0.91284678  0.36211427    -0.19710
F3159       F  0.80796692  0.91631634  0.37079214    -0.20030
F3160       F  0.82122376  0.90703604  0.33006822    -0.22700
C3161       C  0.85475170  0.93295828  0.48191493    -0.05540
C3162       C  0.84993262  0.93626616  0.45472171     0.00380
C3163       C  0.84054359  0.96086126  0.44574049    -0.08190
C3164       C  0.83320050  0.97975627  0.46465983    -0.05560
C3165       C  0.83820189  0.97613885  0.49192712     0.00370
C3166       C  0.85198972  0.95332856  0.49997824    -0.08100
C3167       C  0.86581038  0.95063416  0.52654566     0.62280
H3168       H  0.86260118  0.91450819  0.48894575     0.12980
H3169       H  0.82378580  0.99762479  0.45808572     0.12990
C3170       C  0.83936943  0.96766495  0.41664944     0.62520
F3171       F  0.88536264  0.93198095  0.52569264    -0.22650
F3172       F  0.84854299  0.94315063  0.54566514    -0.19980
F3173       F  0.87731175  0.97403472  0.53347438    -0.19660
F3174       F  0.82019419  0.95343865  0.40441788    -0.19710
F3175       F  0.86288816  0.96206572  0.40506610    -0.20030
F3176       F  0.83407089  0.99393592  0.41258960    -0.22700
C3177       C  0.93815544  0.87443853  0.44731914    -0.05540
C3178       C  0.91256652  0.86706679  0.45135653     0.00380
C3179       C  0.90638681  0.85229990  0.47406353    -0.08190
C3180       C  0.92602429  0.84672683  0.49284729    -0.05560
C3181       C  0.95179297  0.85517650  0.48975985     0.00370
C3182       C  0.95805901  0.86845765  0.46571131    -0.08100
C3183       C  0.98527923  0.87681722  0.45902856     0.62280
H3184       H  0.94215000  0.88592303  0.42986404     0.12980
H3185       H  0.92111848  0.83576931  0.51035968     0.12990
C3186       C  0.87889808  0.84303401  0.47871827     0.62520
F3187       F  0.98644008  0.88979810  0.43504572    -0.22650
F3188       F  0.00091444  0.85488532  0.45720381    -0.19980
F3189       F  0.99442376  0.89365700  0.47822021    -0.19660
F3190       F  0.87099802  0.82741640  0.45794511    -0.19710
F3191       F  0.86225670  0.86420125  0.48058081    -0.20030
F3192       F  0.87700741  0.82858783  0.50175273    -0.22700
C3193       C  0.36457202  0.92419704  0.47525947    -0.05540
C3194       C  0.35771208  0.93544937  0.45079487     0.00380
C3195       C  0.34421950  0.95955481  0.44983097    -0.08190
C3196       C  0.33926408  0.97238628  0.47350288    -0.05560
C3197       C  0.34756932  0.96224936  0.49794368     0.00370
C3198       C  0.35963624  0.93734928  0.49919175    -0.08100
C3199       C  0.36837969  0.92552482  0.52531546     0.62280
H3200       H  0.37494935  0.90573231  0.47534966     0.12980
H3201       H  0.32973891  0.99132636  0.47299715     0.12990
C3202       C  0.33657354  0.97268703  0.42385382     0.62520
F3203       F  0.38120357  0.90194821  0.52189554    -0.22650
F3204       F  0.34708506  0.92106415  0.54097038    -0.19980
F3205       F  0.38504202  0.94243600  0.53819265    -0.19660
F3206       F  0.32416191  0.95510875  0.40747468    -0.19710
F3207       F  0.35837013  0.98190474  0.41139074    -0.20030
F3208       F  0.31995197  0.99365064  0.42767357    -0.22700
C3209       C  0.40462708  0.96948466  0.36168395    -0.05540
C3210       C  0.41505888  0.94893976  0.37675137     0.00380
C3211       C  0.44177226  0.94819229  0.38258014    -0.08190
C3212       C  0.45743689  0.96813209  0.37261357    -0.05560
C3213       C  0.44739065  0.98885287  0.35688203     0.00370
C3214       C  0.42011904  0.98974962  0.35178167    -0.08100
C3215       C  0.40685430  0.01172772  0.33643820     0.62280
H3216       H  0.38386639  0.96972833  0.35829612     0.12980
H3217       H  0.47796137  0.96731457  0.37706506     0.12990
C3218       C  0.45366588  0.92616556  0.39896608     0.62520
F3219       F  0.38015600  0.00920321  0.33599147    -0.22650
F3220       F  0.41500336  0.01158248  0.31058819    -0.19980
F3221       F  0.41247960  0.03549971  0.34803476    -0.19660
F3222       F  0.44735710  0.90238078  0.38777941    -0.19710
F3223       F  0.44434886  0.92704142  0.42442185    -0.20030
F3224       F  0.48041125  0.92778641  0.40036637    -0.22700
C3225       C  0.35119838  0.85264395  0.38165401    -0.05540
C3226       C  0.34838422  0.87797525  0.37175886     0.00380
C3227       C  0.33137668  0.88272375  0.35011002    -0.08190
C3228       C  0.31831037  0.86139975  0.33857795    -0.05560
C3229       C  0.32069108  0.83593879  0.34886248     0.00370
C3230       C  0.33725589  0.83159155  0.37123315    -0.08100
C3231       C  0.34164531  0.80572570  0.38538033     0.62280
H3232       H  0.36411568  0.84938504  0.39842139     0.12980
H3233       H  0.30577882  0.86450031  0.32157081     0.12990
C3234       C  0.32621484  0.91022156  0.34000988     0.62520
F3235       F  0.36704897  0.79777826  0.38196290    -0.22650
F3236       F  0.32568221  0.78613572  0.37683069    -0.19980
F3237       F  0.33734394  0.80897671  0.41210011    -0.19660
F3238       F  0.34859543  0.92066245  0.32981157    -0.19710
F3239       F  0.31769932  0.92575473  0.36049378    -0.20030
F3240       F  0.30741197  0.91068859  0.32030115    -0.22700
C3241       C  0.91186060  0.33452303  0.46861909    -0.05540
C3242       C  0.90814757  0.36149155  0.46587571     0.00380
C3243       C  0.91570272  0.37803621  0.48715399    -0.08190
C3244       C  0.93069655  0.36741671  0.50808491    -0.05560
C3245       C  0.93622362  0.34058086  0.50955766     0.00370
C3246       C  0.92543701  0.32385096  0.49024759    -0.08100
C3247       C  0.92946188  0.29483090  0.49182439     0.62280
H3248       H  0.90591405  0.32188049  0.45259850     0.12980
H3249       H  0.93847714  0.38024921  0.52317629     0.12990
C3250       C  0.90851636  0.40677266  0.48869481     0.62520
F3251       F  0.91741679  0.28192051  0.47114738    -0.22650
F3252       F  0.91895856  0.28610619  0.51511702    -0.19980
F3253       F  0.95568942  0.28923392  0.49121735    -0.19660
F3254       F  0.89043298  0.41408852  0.46967429    -0.19710
F3255       F  0.93050735  0.42176442  0.48586650    -0.20030
F3256       F  0.89787091  0.41191853  0.51310009    -0.22700
C3257       C  0.93021684  0.44369013  0.40614974    -0.05540
C3258       C  0.93116582  0.42014580  0.39200924     0.00380
C3259       C  0.95081966  0.41650155  0.37305946    -0.08190
C3260       C  0.96768423  0.43732673  0.36777537    -0.05560
C3261       C  0.96676315  0.46105213  0.38184605     0.00370
C3262       C  0.94822293  0.46382473  0.40223569    -0.08100
C3263       C  0.94814148  0.48689758  0.42105494     0.62280
H3264       H  0.91565553  0.44571297  0.42125927     0.12980
H3265       H  0.98208274  0.43498146  0.35258964     0.12990
C3266       C  0.95525801  0.39033529  0.35973214     0.62520
F3267       F  0.93251721  0.48249342  0.44264139    -0.22650
F3268       F  0.93890295  0.50894712  0.40821825    -0.19980
F3269       F  0.97297087  0.49125881  0.43053823    -0.19660
F3270       F  0.93415723  0.38396755  0.34416268    -0.19710
F3271       F  0.95916948  0.37123418  0.37873860    -0.20030
F3272       F  0.97680509  0.39057872  0.34370615    -0.22700
C3273       C  0.83688302  0.35092559  0.38125007    -0.05540
C3274       C  0.86382284  0.34967689  0.37789736     0.00380
C3275       C  0.87397137  0.33281287  0.35823633    -0.08190
C3276       C  0.85666559  0.31943004  0.34142636    -0.05560
C3277       C  0.82978373  0.32018395  0.34505020     0.00370
C3278       C  0.81959410  0.33632239  0.36534847    -0.08100
C3279       C  0.79058753  0.33854977  0.37011364     0.62280
H3280       H  0.82948737  0.36361580  0.39653126     0.12980
H3281       H  0.86433033  0.30815833  0.32526222     0.12990
C3282       C  0.90266169  0.32727046  0.35454106     0.62520
F3283       F  0.78509681  0.35513889  0.39088747    -0.22650
F3284       F  0.78061184  0.31440267  0.37610141    -0.19980
F3285       F  0.77790937  0.34811422  0.34796815    -0.19660
F3286       F  0.90709920  0.30069386  0.35634962    -0.19710
F3287       F  0.91836422  0.33881804  0.37326885    -0.20030
F3288       F  0.90996577  0.33578118  0.32980564    -0.22700
C3289       C  0.42310642  0.36005926  0.01688228    -0.05540
C3290       C  0.44891555  0.36012531  0.00822854     0.00380
C3291       C  0.45395255  0.36670228  0.98131938    -0.08190
C3292       C  0.43292503  0.37158283  0.96423402    -0.05560
C3293       C  0.40741800  0.37065155  0.97286296     0.00370
C3294       C  0.40220038  0.36514951  0.99965972    -0.08100
C3295       C  0.37517278  0.36436624  0.01116437     0.62280
H3296       H  0.41908737  0.35528191  0.03729341     0.12980
H3297       H  0.43617008  0.37693031  0.94382891     0.12990
C3298       C  0.48099492  0.36774921  0.96987488     0.62520
F3299       F  0.37165301  0.34062933  0.02371381    -0.22650
F3300       F  0.35570845  0.36719408  0.99238937    -0.19980
F3301       F  0.37267029  0.38417922  0.02950191    -0.19660
F3302       F  0.49249016  0.34340845  0.97189325    -0.19710
F3303       F  0.49562358  0.38616227  0.98317939    -0.20030
F3304       F  0.48077044  0.37463270  0.94340994    -0.22700
C3305       C  0.32756804  0.44864285  0.95149603    -0.05540
C3306       C  0.35438472  0.44648316  0.94880541     0.00380
C3307       C  0.37060533  0.46576871  0.96040676    -0.08190
C3308       C  0.35976195  0.48348309  0.97836931    -0.05560
C3309       C  0.33310647  0.48382423  0.98296608     0.00370
C3310       C  0.31661663  0.46740263  0.96802155    -0.08100
C3311       C  0.28757327  0.46957247  0.96959848     0.62280
H3312       H  0.31525547  0.43424805  0.94215349     0.12980
H3313       H  0.37215974  0.49708319  0.98885948     0.12990
C3314       C  0.39925155  0.46814218  0.95467182     0.62520
F3315       F  0.27516853  0.45058371  0.95481149    -0.22650
F3316       F  0.28036321  0.49365925  0.95962242    -0.19980
F3317       F  0.27979569  0.46713083  0.99552273    -0.19660
F3318       F  0.40703031  0.45177302  0.93452481    -0.19710
F3319       F  0.41354779  0.46236687  0.97722582    -0.20030
F3320       F  0.40449458  0.49353379  0.94706469    -0.22700
C3321       C  0.32697359  0.34731698  0.90331220    -0.05540
C3322       C  0.34638290  0.36456989  0.89534644     0.00380
C3323       C  0.35207341  0.36706577  0.86826416    -0.08190
C3324       C  0.33749669  0.35257165  0.84990580    -0.05560
C3325       C  0.31832698  0.33487152  0.85775282     0.00370
C3326       C  0.31277721  0.33231695  0.88502486    -0.08100
C3327       C  0.29213772  0.31473685  0.89619827     0.62280
H3328       H  0.32273084  0.34567521  0.92417539     0.12980
H3329       H  0.34081655  0.35516519  0.82901694     0.12990
C3330       C  0.37388486  0.38441431  0.85891672     0.62520
F3331       F  0.30345530  0.29734659  0.91389338    -0.22650
F3332       F  0.27927941  0.30057429  0.87717491    -0.19980
F3333       F  0.27413504  0.32984161  0.90937745    -0.19660
F3334       F  0.39672040  0.37734525  0.87168128    -0.19710
F3335       F  0.36826665  0.41026088  0.86439814    -0.20030
F3336       F  0.37769781  0.38219769  0.83199999    -0.22700
C3337       C  0.81631113  0.82722249  0.77774444    -0.05540
C3338       C  0.79598781  0.81441412  0.76440851     0.00380
C3339       C  0.79382819  0.81736493  0.73657394    -0.08190
C3340       C  0.81108316  0.83426254  0.72357758    -0.05560
C3341       C  0.83049065  0.84792624  0.73731741     0.00370
C3342       C  0.83336829  0.84418697  0.76481935    -0.08100
C3343       C  0.85431774  0.85822765  0.78043378     0.62280
H3344       H  0.81851524  0.82412751  0.79874808     0.12980
H3345       H  0.80920738  0.83705400  0.70240882     0.12990
C3346       C  0.77436465  0.80310043  0.71943495     0.62520
F3347       F  0.85465103  0.85090122  0.80677088    -0.22650
F3348       F  0.85012345  0.88491719  0.77919520    -0.19980
F3349       F  0.87831878  0.85245594  0.76999992    -0.19660
F3350       F  0.75870222  0.82112385  0.70642712    -0.19710
F3351       F  0.75880298  0.78652631  0.73354235    -0.20030
F3352       F  0.78745839  0.78838392  0.70092682    -0.22700
C3353       C  0.78891155  0.71677826  0.82586246    -0.05540
C3354       C  0.79409512  0.74346752  0.82937146     0.00380
C3355       C  0.81501360  0.75099771  0.84622939    -0.08190
C3356       C  0.82959843  0.73150510  0.85918219    -0.05560
C3357       C  0.82436104  0.70498761  0.85576258     0.00370
C3358       C  0.80381135  0.69729399  0.83882004    -0.08100
C3359       C  0.79800269  0.66863956  0.83431176     0.62280
H3360       H  0.77328685  0.71132483  0.81261469     0.12980
H3361       H  0.84562950  0.73707311  0.87197406     0.12990
C3362       C  0.82343618  0.77895807  0.85134623     0.62520
F3363       F  0.77732292  0.66526399  0.81703466    -0.22650
F3364       F  0.79195915  0.65686432  0.85803584    -0.19980
F3365       F  0.81945167  0.65633149  0.82378495    -0.19660
F3366       F  0.80859187  0.79746238  0.83827395    -0.19710
F3367       F  0.84883823  0.78187658  0.84350977    -0.20030
F3368       F  0.82212723  0.78400005  0.87811754    -0.22700
C3369       C  0.72974582  0.83143429  0.84394996    -0.05540
C3370       C  0.72250456  0.81029962  0.82790810     0.00380
C3371       C  0.69587678  0.80395326  0.82529571    -0.08190
C3372       C  0.67772722  0.81831166  0.84002499    -0.05560
C3373       C  0.68527477  0.83905839  0.85640646     0.00370
C3374       C  0.71161790  0.84600679  0.85823435    -0.08100
C3375       C  0.72055121  0.86828483  0.87580692     0.62280
H3376       H  0.75002657  0.83610105  0.84578267     0.12980
H3377       H  0.65742201  0.81304700  0.83902621     0.12990
C3378       C  0.68534004  0.78262738  0.80752540     0.62520
F3379       F  0.74711148  0.87169403  0.87491397    -0.22650
F3380       F  0.71399496  0.86325727  0.90171366    -0.19980
F3381       F  0.70878084  0.89132246  0.86765310    -0.19660
F3382       F  0.70419275  0.77022949  0.79298500    -0.19710
F3383       F  0.67305184  0.76410579  0.82277978    -0.20030
F3384       F  0.66747376  0.79342864  0.79002482    -0.22700
C3385       C  0.70268062  0.93576494  0.66432498    -0.05540
C3386       C  0.70084462  0.94364729  0.69049520     0.00380
C3387       C  0.70544984  0.96989273  0.69755787    -0.08190
C3388       C  0.71196874  0.98769775  0.67763713    -0.05560
C3389       C  0.71523367  0.97972425  0.65128394     0.00370
C3390       C  0.70986788  0.95316375  0.64436104    -0.08100
C3391       C  0.71210427  0.94243160  0.61650695     0.62280
H3392       H  0.69810625  0.91563803  0.65972674     0.12980
H3393       H  0.71570453  0.00785593  0.68278971     0.12990
C3394       C  0.70432884  0.97872207  0.72614379     0.62520
F3395       F  0.70604739  0.91614003  0.61508101    -0.22650
F3396       F  0.73725031  0.94501913  0.60797605    -0.19980
F3397       F  0.69514327  0.95560488  0.59975344    -0.19660
F3398       F  0.72021344  0.96285053  0.74154857    -0.19710
F3399       F  0.67925255  0.97723972  0.73525415    -0.20030
F3400       F  0.71256367  0.00424630  0.72912916    -0.22700
C3401       C  0.62368510  0.92172346  0.76942193    -0.05540
C3402       C  0.62572315  0.91936443  0.74206681     0.00380
C3403       C  0.60710099  0.93240165  0.72567199    -0.08190
C3404       C  0.59116164  0.95174695  0.73681779    -0.05560
C3405       C  0.59143867  0.95624018  0.76404894     0.00370
C3406       C  0.60635644  0.93949350  0.78071251    -0.08100
C3407       C  0.60493580  0.94118040  0.81033380     0.62280
H3408       H  0.63731841  0.91124796  0.78197623     0.12980
H3409       H  0.57831675  0.96324191  0.72421980     0.12990
C3410       C  0.60358863  0.92664494  0.69651868     0.62520
F3411       F  0.62281714  0.92494013  0.82280390    -0.22650
F3412       F  0.58051490  0.93371454  0.81810239    -0.19980
F3413       F  0.60979119  0.96652834  0.81804451    -0.19660
F3414       F  0.61852402  0.90563608  0.68848572    -0.19710
F3415       F  0.61002755  0.94842556  0.68182023    -0.20030
F3416       F  0.57790410  0.92066856  0.69149322    -0.22700
C3417       C  0.72854795  0.87481252  0.76785971    -0.05540
C3418       C  0.70851071  0.86640588  0.75097451     0.00380
C3419       C  0.70519768  0.83933555  0.74663664    -0.08190
C3420       C  0.72139205  0.82161503  0.76038438    -0.05560
C3421       C  0.74111694  0.82989068  0.77775113     0.00370
C3422       C  0.74494512  0.85710150  0.78144185    -0.08100
C3423       C  0.76554900  0.86886102  0.79926525     0.62280
H3424       H  0.73127015  0.89562671  0.77067598     0.12980
H3425       H  0.71869461  0.80086089  0.75767837     0.12990
C3426       C  0.68528178  0.82916375  0.72696442     0.62520
F3427       F  0.75385839  0.88512609  0.81743355    -0.22650
F3428       F  0.78224762  0.88351450  0.78413717    -0.19980
F3429       F  0.77993734  0.85045495  0.81299420    -0.19660
F3430       F  0.68865480  0.84108247  0.70271602    -0.19710
F3431       F  0.66056581  0.83437532  0.73577439    -0.20030
F3432       F  0.68753989  0.80242376  0.72342197    -0.22700
C3433       C  0.92257605  0.66394177  0.74744733    -0.05540
C3434       C  0.90654630  0.66054320  0.72533603     0.00380
C3435       C  0.90767329  0.63674691  0.71103706    -0.08190
C3436       C  0.92519807  0.61718358  0.71957678    -0.05560
C3437       C  0.94180546  0.62099270  0.74133077     0.00370
C3438       C  0.94054097  0.64487676  0.75551751    -0.08100
C3439       C  0.95778166  0.65213166  0.77878588     0.62280
H3440       H  0.92192980  0.68243511  0.75789009     0.12980
H3441       H  0.92655292  0.59907219  0.70857961     0.12990
C3442       C  0.89153605  0.63115904  0.68647780     0.62520
F3443       F  0.97269636  0.67340292  0.77196244    -0.22650
F3444       F  0.97418456  0.63231666  0.78697482    -0.19980
F3445       F  0.94237529  0.65909354  0.79980253    -0.19660
F3446       F  0.90770623  0.62955829  0.66494591    -0.19710
F3447       F  0.87283878  0.65000780  0.68136383    -0.20030
F3448       F  0.87907913  0.60749744  0.68946200    -0.22700
C3449       C  0.91056284  0.72259512  0.64294766    -0.05540
C3450       C  0.90265272  0.73709570  0.66510754     0.00380
C3451       C  0.91116917  0.76348075  0.66750406    -0.08190
C3452       C  0.92794099  0.77354688  0.64827465    -0.05560
C3453       C  0.93786379  0.75795218  0.62807821     0.00370
C3454       C  0.92882923  0.73208583  0.62502715    -0.08100
C3455       C  0.93826450  0.71324948  0.60407907     0.62280
H3456       H  0.90383663  0.70267975  0.64066571     0.12980
H3457       H  0.93488150  0.79342123  0.64981845     0.12990
C3458       C  0.90447067  0.78078545  0.69081216     0.62520
F3459       F  0.94983857  0.69186541  0.61625135    -0.22650
F3460       F  0.95597872  0.72415066  0.58718349    -0.19980
F3461       F  0.91734618  0.70476327  0.58918310    -0.19660
F3462       F  0.90910924  0.76765601  0.71421107    -0.19710
F3463       F  0.87886789  0.78865564  0.68910036    -0.20030
F3464       F  0.91934550  0.80307075  0.69149526    -0.22700
C3465       C  0.81706880  0.72650728  0.74081532    -0.05540
C3466       C  0.84347436  0.73202971  0.74341486     0.00380
C3467       C  0.85185374  0.74995001  0.76307188    -0.08190
C3468       C  0.83314145  0.76329646  0.77789575    -0.05560
C3469       C  0.80664583  0.75836509  0.77478573     0.00370
C3470       C  0.79840440  0.73899867  0.75644639    -0.08100
C3471       C  0.77052393  0.73032624  0.75237366     0.62280
H3472       H  0.81092254  0.71223543  0.72627379     0.12980
H3473       H  0.83934262  0.77757531  0.79234977     0.12990
C3474       C  0.87999314  0.75568554  0.76969636     0.62520
F3475       F  0.76358996  0.73345109  0.72608384    -0.22650
F3476       F  0.75286603  0.74394466  0.76737814    -0.19980
F3477       F  0.76868375  0.70412264  0.75879644    -0.19660
F3478       F  0.88517390  0.78145510  0.76350855    -0.19710
F3479       F  0.89729957  0.73981651  0.75659117    -0.20030
F3480       F  0.88416132  0.75199505  0.79648826    -0.22700
C3481       C  0.59963895  0.72620363  0.95920441    -0.05540
C3482       C  0.60448358  0.72164466  0.98641810     0.00380
C3483       C  0.62831217  0.70929270  0.99366708    -0.08190
C3484       C  0.64797836  0.70777758  0.97498500    -0.05560
C3485       C  0.64303470  0.71138270  0.94796587     0.00370
C3486       C  0.61788871  0.71929646  0.93970926    -0.08100
C3487       C  0.60982257  0.71849350  0.91081459     0.62280
H3488       H  0.58109947  0.73431214  0.95309836     0.12980
H3489       H  0.66700217  0.70084785  0.98121039     0.12990
C3490       C  0.63338396  0.69532757  0.01971541     0.62520
F3491       F  0.58388018  0.72474854  0.90729324    -0.22650
F3492       F  0.61380134  0.69358521  0.90104464    -0.19980
F3493       F  0.62419082  0.73591464  0.89632867    -0.19660
F3494       F  0.61093706  0.68497194  0.02995179    -0.19710
F3495       F  0.64466142  0.71248615  0.03728780    -0.20030
F3496       F  0.65023509  0.67442771  0.01631871    -0.22700
C3497       C  0.70382791  0.60571774  0.96659983    -0.05540
C3498       C  0.73035061  0.60783915  0.97217169     0.00380
C3499       C  0.74549752  0.62442349  0.95618550    -0.08190
C3500       C  0.73312541  0.64149914  0.93826280    -0.05560
C3501       C  0.70622694  0.64105922  0.93406960     0.00370
C3502       C  0.69187099  0.62073433  0.94643874    -0.08100
C3503       C  0.66436577  0.61356497  0.93863523     0.62280
H3504       H  0.69250733  0.59166937  0.97753218     0.12980
H3505       H  0.74444938  0.65633847  0.92862366     0.12990
C3506       C  0.77460250  0.62468675  0.95866049     0.62520
F3507       F  0.66329337  0.58705257  0.93345765    -0.22650
F3508       F  0.65589829  0.62657216  0.91614368    -0.19980
F3509       F  0.64781181  0.61911894  0.95919425    -0.19660
F3510       F  0.78418148  0.60051084  0.95139668    -0.19710
F3511       F  0.78145777  0.63003706  0.98446616    -0.20030
F3512       F  0.78566980  0.64331994  0.94254729    -0.22700
C3513       C  0.72487664  0.74488776  0.88865830    -0.05540
C3514       C  0.71173015  0.72313860  0.87839624     0.00380
C3515       C  0.71271466  0.71830614  0.85089833    -0.08190
C3516       C  0.72717414  0.73522732  0.83480504    -0.05560
C3517       C  0.74046645  0.75699306  0.84496905     0.00370
C3518       C  0.73953691  0.76171388  0.87260483    -0.08100
C3519       C  0.75385562  0.78346048  0.88661816     0.62280
H3520       H  0.72409975  0.74850021  0.90972611     0.12980
H3521       H  0.72832343  0.73147379  0.81383453     0.12990
C3522       C  0.69797828  0.69583502  0.83839150     0.62520
F3523       F  0.76991685  0.77279807  0.90592472    -0.22650
F3524       F  0.73612530  0.79991609  0.89849270    -0.19980
F3525       F  0.76891685  0.79807753  0.87001175    -0.19660
F3526       F  0.67229976  0.69683980  0.84585439    -0.19710
F3527       F  0.70873336  0.67227431  0.84634966    -0.20030
F3528       F  0.69867020  0.69681963  0.81108898    -0.22700
loop_ 
_geom_bond_atom_site_label_1 
_geom_bond_atom_site_label_2 
_geom_bond_distance 
_geom_bond_site_symmetry_2 
_ccdc_geom_bond_type 
C1            C2   1.407       .  A
C1            C6   1.399       .  A
C1         C3485   1.491       .  S
C2            C3   1.412       .  A
C2            H7   1.082       .  S
C3            C4   1.413       .  A
C3         C3514   1.497       .  S
C4            C5   1.415       .  A
C4            H8   1.082       .  S
C5            C6   1.396       .  A
C5         C3501   1.504       .  S
C6            H9   1.081       .  S
C10          C11   1.407       .  A
C10          C15   1.401       .  A
C10        C3466   1.480       .  S
C11          C12   1.410       .  A
C11          H16   1.076       .  S
C12          C13   1.408       .  A
C12        C3450   1.503       .  S
C13          C14   1.399       .  A
C13          H17   1.084       .  S
C14          C15   1.401       .  A
C14        C3434   1.476       .  S
C15          H18   1.084       .  S
C19          C20   1.399       .  A
C19          C24   1.385       .  A
C19        C3386   1.464       .  S
C20          C21   1.405       .  A
C20          H25   1.084       .  S
C21          C22   1.412       .  A
C21        C3418   1.488       .  S
C22          C23   1.415       .  A
C22          H26   1.083       .  S
C23          C24   1.393       .  A
C23        C3402   1.487       .  S
C24          H27   1.083       .  S
C28          C29   1.418       .  A
C28          C33   1.425       .  A
C28        C3517   1.507       .  S
C29          C30   1.415       .  A
C29        C3354   1.491       .  S
C30          C31   1.414       .  A
C30        C3469   1.488       .  S
C31          C32   1.420       .  A
C31        C3338   1.503       .  S
C32          C33   1.426       .  A
C32        C3421   1.497       .  S
C33        C3370   1.492       .  S
C34          C35   1.402       .  A
C34          C39   1.388       .  A
C34        C3293   1.464       .  S
C35          C36   1.406       .  A
C35          H40   1.084       .  S
C36          C37   1.407       .  A
C36        C3322   1.481       .  S
C37          C38   1.408       .  A
C37          H41   1.084       .  S
C38          C39   1.393       .  A
C38        C3306   1.478       .  S
C39          H42   1.084       .  S
C43          C44   1.412       .  A
C43          C48   1.408       .  A
C43        C3274   1.493       .  S
C44          C45   1.409       .  A
C44          H49   1.082       .  S
C45          C46   1.399       .  A
C45        C3258   1.489       .  S
C46          C47   1.400       .  A
C46          H50   1.083       .  S
C47          C48   1.411       .  A
C47        C3242   1.493       .  S
C48          H51   1.083       .  S
C52          C53   1.393       .  A
C52          C57   1.404       .  A
C52        C3210   1.473       .  S
C53          C54   1.394       .  A
C53          H58   1.085       .  S
C54          C55   1.400       .  A
C54        C3194   1.471       .  S
C55          C56   1.408       .  A
C55          H59   1.084       .  S
C56          C57   1.407       .  A
C56        C3226   1.482       .  S
C57          H60   1.083       .  S
C61          C62   1.400       .  A
C61          C66   1.419       .  A
C61        C3162   1.499       .  S
C62          C63   1.386       .  A
C62          H67   1.085       .  S
C63          C64   1.398       .  A
C63        C3178   1.484       .  S
C64          C65   1.421       .  A
C64          H68   1.082       .  S
C65          C66   1.422       .  A
C65        C3146   1.516       .  S
C66          H69   1.077       .  S
C70          C71   1.409       .  A
C70          C75   1.404       .  A
C70        C3341   1.488       .  S
C71          C72   1.409       .  A
C71          H76   1.083       .  S
C72          C73   1.397       .  A
C72        C3130   1.485       .  S
C73          C74   1.400       .  A
C73          H77   1.082       .  S
C74          C75   1.408       .  A
C74        C3114   1.488       .  S
C75          H78   1.084       .  S
C79          C80   1.394       .  A
C79          C84   1.400       .  A
C79        C3082   1.471       .  S
C80          C81   1.395       .  A
C80          H85   1.084       .  S
C81          C82   1.406       .  A
C81        C3101   1.472       .  S
C82          C83   1.408       .  A
C82          H86   1.084       .  S
C83          C84   1.402       .  A
C83        C3066   1.477       .  S
C84          H87   1.084       .  S
C88          C89   1.402       .  A
C88          C93   1.392       .  A
C88        C3034   1.470       .  S
C89          C90   1.406       .  A
C89          H94   1.084       .  S
C90          C91   1.409       .  A
C90        C3357   1.481       .  S
C91          C92   1.406       .  A
C91          H95   1.084       .  S
C92          C93   1.394       .  A
C92        C3050   1.475       .  S
C93          H96   1.085       .  S
C97          C98   1.394       .  A
C97         C102   1.400       .  A
C97        C3005   1.480       .  S
C98          C99   1.408       .  A
C98         H103   1.082       .  S
C99         C100   1.413       .  A
C99        C3021   1.510       .  S
C100        C101   1.410       .  A
C100        H104   1.079       .  S
C101        C102   1.406       .  A
C101       C2989   1.483       .  S
C102        H105   1.084       .  S
C106        C107   1.398       .  A
C106        C111   1.400       .  A
C106       C2954   1.488       .  S
C107        C108   1.405       .  A
C107        H112   1.084       .  S
C108        C109   1.401       .  A
C108       C2973   1.481       .  S
C109        C110   1.400       .  A
C109        H113   1.084       .  S
C110        C111   1.404       .  A
C110       C2938   1.468       .  S
C111        H114   1.082       .  S
O115       Zr127   2.446   1_655  S
O115        C117   1.289       .  A
O116       Zr153   2.428       .  S
O116        C117   1.287       .  A
C117       C3453   1.474       .  S
O118       Zr130   2.456       .  S
O118        C120   1.288       .  A
O119       Zr154   2.407       .  S
O119        C120   1.285       .  A
C120       C2957   1.493       .  S
O121       Zr130   2.465   1_655  S
O121        C123   1.291       .  A
O122       Zr153   2.420       .  S
O122        C123   1.287       .  A
C123       C3133   1.495       .  S
O124       Zr127   2.462       .  S
O124        C126   1.292       .  A
O125       Zr154   2.415       .  S
O125        C126   1.284       .  A
C126       C2890   1.483       .  S
Zr127       O128   2.432       .  S
Zr127       O129   2.434       .  S
Zr127       O133   2.372       .  S
Zr127       O134   2.364       .  S
Zr127       O157   2.374       .  S
Zr127       O159   2.375       .  S
O128        H171   0.990       .  S
O129        H170   0.990       .  S
O129        H174   0.990       .  S
Zr130       O131   2.428       .  S
Zr130       O132   2.434       .  S
Zr130       O134   2.372       .  S
Zr130       O133   2.369       .  S
Zr130       O158   2.385       .  S
Zr130       O160   2.385       .  S
O131        H172   0.989       .  S
O131        H175   0.989       .  S
O132        H165   0.990       .  S
O133       Zr153   2.377   1_455  S
O134       Zr154   2.376       .  S
O134        H161   0.964       .  S
O135       Zr147   2.443       .  S
O135        C137   1.289       .  A
O136       Zr154   2.409       .  S
O136        C137   1.281       .  A
C137       C2906   1.474       .  S
O138       Zr150   2.462   1_655  S
O138        C140   1.289       .  A
O139       Zr153   2.448       .  S
O139        C140   1.293       .  A
C140       C3181   1.516       .  S
O141       Zr150   2.488       .  S
O141        C143   1.293       .  A
O142       Zr154   2.407       .  S
O142        C143   1.285       .  A
C143       C3002   1.513       .  S
O144       Zr147   2.435   1_655  S
O144        C146   1.286       .  A
O145       Zr153   2.400       .  S
O145        C146   1.281       .  A
C146       C2922   1.458       .  S
Zr147       O148   2.438       .  S
Zr147       O149   2.434       .  S
Zr147       O155   2.364       .  S
Zr147       O156   2.368       .  S
Zr147       O159   2.361       .  S
Zr147       O157   2.367       .  S
O148        H168   0.990       .  S
O148        H173   0.990       .  S
O149        H169   0.990       .  S
Zr150       O151   2.423       .  S
Zr150       O152   2.434       .  S
Zr150       O156   2.373       .  S
Zr150       O155   2.366       .  S
Zr150       O160   2.372       .  S
Zr150       O158   2.385       .  S
O151        H167   0.987       .  S
O152        H166   0.990       .  S
O152        H176   0.990       .  S
Zr153       O156   2.374   1_655  S
Zr153       O158   2.393   1_655  S
Zr153       O159   2.390   1_655  S
Zr154       O155   2.379       .  S
Zr154       O157   2.383       .  S
Zr154       O160   2.384       .  S
O155        H163   0.963       .  S
O158        H162   0.966   1_455  S
O159        H164   0.966   1_455  S
C177        C178   1.410       .  A
C177        C182   1.412       .  A
C177       C2877   1.492       .  S
C178        C179   1.402       .  A
C178        H183   1.084       .  S
C179        C180   1.395       .  A
C179       C2858   1.479       .  S
C180        C181   1.398       .  A
C180        H184   1.085       .  S
C181        C182   1.409       .  A
C181       C2842   1.481       .  S
C182        H185   1.083       .  S
C186        C187   1.409       .  A
C186        C191   1.409       .  A
C186       C2826   1.483       .  S
C187        C188   1.406       .  A
C187        H192   1.084       .  S
C188        C189   1.394       .  A
C188       C2810   1.476       .  S
C189        C190   1.397       .  A
C189        H193   1.086       .  S
C190        C191   1.404       .  A
C190       C2794   1.475       .  S
C191        H194   1.084       .  S
C195        C196   1.413       .  A
C195        C200   1.430       .  A
C195       C2762   1.510       .  S
C196        C197   1.411       .  A
C196       C2941   1.500       .  S
C197        C198   1.419       .  A
C197       C2829   1.486       .  S
C198        C199   1.423       .  A
C198       C2778   1.506       .  S
C199        C200   1.438       .  A
C199       C2874   1.516       .  S
C200       C2746   1.490       .  S
C201        C202   1.408       .  A
C201        C206   1.413       .  A
C201       C2765   1.493       .  S
C202        C203   1.402       .  A
C202        H207   1.082       .  S
C203        C204   1.396       .  A
C203       C2893   1.478       .  S
C204        C205   1.399       .  A
C204        H208   1.085       .  S
C205        C206   1.408       .  A
C205       C2730   1.482       .  S
C206        H209   1.084       .  S
O210       Zr222   2.443   1_655  S
O210        C212   1.289       .  A
O211       Zr248   2.410       .  S
O211        C212   1.280       .  A
C212       C3037   1.499       .  S
O213       Zr225   2.476       .  S
O213        C215   1.293       .  A
O214       Zr249   2.425       .  S
O214        C215   1.286       .  A
C215       C2733   1.493       .  S
O216       Zr225   2.438   1_655  S
O216        C218   1.285       .  A
O217       Zr248   2.429       .  S
O217        C218   1.286       .  A
C218       C3437   1.473       .  S
O219       Zr222   2.461       .  S
O219        C221   1.289       .  A
O220       Zr249   2.380       .  S
O220        C221   1.279       .  A
C221       C2701   1.480       .  S
Zr222       O223   2.434       .  S
Zr222       O224   2.435       .  S
Zr222       O228   2.373       .  S
Zr222       O229   2.365       .  S
Zr222       O252   2.369       .  S
Zr222       O254   2.373       .  S
O223        H266   0.990       .  S
O224        H265   0.990       .  S
O224        H269   0.990       .  S
Zr225       O226   2.434       .  S
Zr225       O227   2.433       .  S
Zr225       O229   2.371       .  S
Zr225       O228   2.377       .  S
Zr225       O253   2.384       .  S
Zr225       O255   2.372       .  S
O226        H267   0.990       .  S
O226        H270   0.990       .  S
O227        H260   0.990       .  S
O228       Zr248   2.370   1_455  S
O229       Zr249   2.372       .  S
O229        H256   0.962       .  S
O230       Zr242   2.462       .  S
O230        C232   1.291       .  A
O231       Zr249   2.400       .  S
O231        C232   1.283       .  A
C232       C2714   1.486       .  S
O233       Zr245   2.480   1_655  S
O233        C235   1.296       .  A
O234       Zr248   2.411       .  S
O234        C235   1.282       .  A
C235       C2666   1.493       .  S
O236       Zr245   2.490       .  S
O236        C238   1.299       .  A
O237       Zr249   2.383       .  S
O237        C238   1.275       .  A
C238       C2682   1.495       .  S
O239       Zr242   2.431   1_655  S
O239        C241   1.285       .  A
O240       Zr248   2.426       .  S
O240        C241   1.288       .  A
C241       C3085   1.481       .  S
Zr242       O243   2.432       .  S
Zr242       O244   2.434       .  S
Zr242       O250   2.352       .  S
Zr242       O251   2.371       .  S
Zr242       O254   2.379       .  S
Zr242       O252   2.375       .  S
O243        H263   0.989       .  S
O243        H268   0.988       .  S
O244        H264   0.990       .  S
Zr245       O246   2.434       .  S
Zr245       O247   2.433       .  S
Zr245       O251   2.373       .  S
Zr245       O250   2.372       .  S
Zr245       O255   2.383       .  S
Zr245       O253   2.385       .  S
O246        H262   0.990       .  S
O247        H261   0.990       .  S
O247        H271   0.990       .  S
Zr248       O251   2.372   1_655  S
Zr248       O253   2.394   1_655  S
Zr248       O254   2.388   1_655  S
Zr249       O250   2.375       .  S
Zr249       O252   2.378       .  S
Zr249       O255   2.381       .  S
O250        H258   0.963       .  S
O253        H257   0.966   1_455  S
O254        H259   0.966   1_455  S
C272        C273   1.401       .  A
C272        C277   1.393       .  A
C272       C2717   1.471       .  S
C273        C274   1.407       .  A
C273        H278   1.084       .  S
C274        C275   1.412       .  A
C274       C2634   1.484       .  S
C275        C276   1.409       .  A
C275        H279   1.083       .  S
C276        C277   1.393       .  A
C276       C2650   1.480       .  S
C277        H280   1.085       .  S
C281        C282   1.399       .  A
C281        C286   1.402       .  A
C281       C2698   1.480       .  S
C282        C283   1.397       .  A
C282        H287   1.080       .  S
C283        C284   1.397       .  A
C283       C2749   1.464       .  S
C284        C285   1.398       .  A
C284        H288   1.079       .  S
C285        C286   1.404       .  A
C285       C2618   1.481       .  S
C286        H289   1.084       .  S
C290        C291   1.399       .  A
C290        C295   1.393       .  A
C290       C2586   1.469       .  S
C291        C292   1.403       .  A
C291        H296   1.084       .  S
C292        C293   1.406       .  A
C292       C2781   1.473       .  S
C293        C294   1.404       .  A
C293        H297   1.084       .  S
C294        C295   1.396       .  A
C294       C2602   1.470       .  S
C295        H298   1.085       .  S
C299        C300   1.396       .  A
C299        C304   1.393       .  A
C299       C2554   1.468       .  S
C300        C301   1.402       .  A
C300        H305   1.083       .  S
C301        C302   1.411       .  A
C301       C3373   1.476       .  S
C302        C303   1.409       .  A
C302        H306   1.083       .  S
C303        C304   1.390       .  A
C303       C2570   1.477       .  S
C304        H307   1.085       .  S
C308        C309   1.406       .  A
C308        C313   1.411       .  A
C308       C2522   1.484       .  S
C309        C310   1.400       .  A
C309        H314   1.083       .  S
C310        C311   1.393       .  A
C310       C2909   1.469       .  S
C311        C312   1.396       .  A
C311        H315   1.085       .  S
C312        C313   1.409       .  A
C312       C2538   1.490       .  S
C313        H316   1.081       .  S
C317        C318   1.427       .  A
C317        C322   1.421       .  A
C317       C3229   1.498       .  S
C318        C319   1.432       .  A
C318       C2506   1.511       .  S
C319        C320   1.431       .  A
C319       C2490   1.509       .  S
C320        C321   1.422       .  A
C320       C2474   1.515       .  S
C321        C322   1.420       .  A
C321       C2525   1.492       .  S
C322       C2986   1.507       .  S
C323        C324   1.404       .  A
C323        C328   1.404       .  A
C323       C2493   1.487       .  S
C324        C325   1.402       .  A
C324        H329   1.084       .  S
C325        C326   1.398       .  A
C325       C2442   1.473       .  S
C326        C327   1.402       .  A
C326        H330   1.083       .  S
C327        C328   1.413       .  A
C327       C2461   1.491       .  S
C328        H331   1.083       .  S
O332       Zr344   2.461       .  S
O332        C334   1.291       .  A
O333       Zr370   2.400   1_556  S
O333        C334   1.281   1_556  A
C334       C3309   1.471   1_554  S
O335       Zr347   2.427       .  S
O335        C337   1.283       .  A
O336       Zr371   2.456       .  S
O336        C337   1.294       .  A
C337       C2413   1.484       .  S
O338       Zr347   2.441       .  S
O338        C340   1.286   1_554  A
O339       Zr370   2.407   1_556  S
O339        C340   1.282       .  A
C340       C2653   1.485       .  S
O341       Zr344   2.463       .  S
O341        C343   1.294       .  A
O342       Zr371   2.420       .  S
O342        C343   1.285       .  A
C343       C2429   1.489       .  S
Zr344       O345   2.434       .  S
Zr344       O346   2.435       .  S
Zr344       O350   2.375       .  S
Zr344       O351   2.365       .  S
Zr344       O374   2.368       .  S
Zr344       O376   2.369       .  S
O345        H388   0.990       .  S
O346        H387   0.990       .  S
O346        H391   0.990       .  S
Zr347       O348   2.432       .  S
Zr347       O349   2.434       .  S
Zr347       O351   2.383       .  S
Zr347       O350   2.371       .  S
Zr347       O375   2.366       .  S
Zr347       O377   2.381       .  S
O348        H389   0.989       .  S
O348        H392   0.990       .  S
O349        H382   0.990       .  S
O350       Zr370   2.365       .  S
O351       Zr371   2.387       .  S
O351        H378   0.963       .  S
O352       Zr364   2.432       .  S
O352        C354   1.285       .  A
O353       Zr371   2.453       .  S
O353        C354   1.293       .  A
C354       C2458   1.480       .  S
O355       Zr367   2.445       .  S
O355        C357   1.287       .  A
O356       Zr370   2.381   1_556  S
O356        C357   1.280   1_556  A
C357       C2621   1.469   1_554  S
O358       Zr367   2.443       .  S
O358        C360   1.286       .  A
O359       Zr371   2.442       .  S
O359        C360   1.292       .  A
C360       C2394   1.509       .  S
O361       Zr364   2.456       .  S
O361        C363   1.292       .  A
O362       Zr370   2.404   1_556  S
O362        C363   1.280   1_556  A
C363       C2861   1.485   1_554  S
Zr364       O365   2.436       .  S
Zr364       O366   2.434       .  S
Zr364       O372   2.383       .  S
Zr364       O373   2.360       .  S
Zr364       O376   2.364       .  S
Zr364       O374   2.374       .  S
O365        H385   0.989       .  S
O365        H390   0.990       .  S
O366        H386   0.990       .  S
Zr367       O368   2.432       .  S
Zr367       O369   2.434       .  S
Zr367       O373   2.368       .  S
Zr367       O372   2.372       .  S
Zr367       O377   2.379       .  S
Zr367       O375   2.373       .  S
O368        H384   0.990       .  S
O369        H383   0.990       .  S
O369        H393   0.990       .  S
Zr370       O373   2.366       .  S
Zr370       O375   2.375       .  S
Zr370       O376   2.378       .  S
Zr371       O372   2.386       .  S
Zr371       O374   2.390       .  S
Zr371       O377   2.386       .  S
O372        H380   0.964       .  S
O375        H379   0.966       .  S
O376        H381   0.966       .  S
O394       Zr406   2.456       .  S
O394        C396   1.289       .  A
O395       Zr432   2.419       .  S
O395        C396   1.287   1_455  A
C396       C3261   1.498       .  S
O397       Zr409   2.402   1_655  S
O397        C399   1.282       .  A
O398       Zr433   2.464       .  S
O398        C399   1.293   1_455  A
C399       C2298   1.487       .  S
O400       Zr409   2.419   1_655  S
O400        C402   1.283       .  A
O401       Zr432   2.415       .  S
O401        C402   1.284   1_455  A
C402       C2314   1.456       .  S
O403       Zr406   2.445       .  S
O403        C405   1.288       .  A
O404       Zr433   2.454       .  S
O404        C405   1.292   1_455  A
C405       C2378   1.497       .  S
Zr406       O407   2.432       .  S
Zr406       O408   2.435   1_655  S
Zr406       O412   2.369       .  S
Zr406       O413   2.375       .  S
Zr406       O436   2.381   1_655  S
Zr406       O438   2.377   1_655  S
O407        H450   0.990       .  S
O408        H449   0.990       .  S
O408        H453   0.990   1_455  S
Zr409       O410   2.436   1_455  S
Zr409       O411   2.435       .  S
Zr409       O413   2.375   1_455  S
Zr409       O412   2.362   1_455  S
Zr409       O437   2.355       .  S
Zr409       O439   2.362       .  S
O410        H451   0.990       .  S
O410        H454   0.990       .  S
O411        H444   0.990       .  S
O412       Zr432   2.370   1_655  S
O413       Zr433   2.387   1_655  S
O413        H440   0.965       .  S
O414       Zr426   2.434       .  S
O414        C416   1.284       .  A
O415       Zr433   2.455       .  S
O415        C416   1.294       .  A
C416       C2541   1.492       .  S
O417       Zr429   2.430       .  S
O417        C419   1.287       .  A
O418       Zr432   2.410       .  S
O418        C419   1.282       .  A
C419       C2346   1.473       .  S
O420       Zr429   2.417       .  S
O420        C422   1.286       .  A
O421       Zr433   2.438       .  S
O421        C422   1.285       .  A
C422       C2362   1.502       .  S
O423       Zr426   2.456       .  S
O423        C425   1.291       .  A
O424       Zr432   2.413       .  S
O424        C425   1.282       .  A
C425       C2330   1.502       .  S
Zr426       O427   2.439       .  S
Zr426       O428   2.434       .  S
Zr426       O434   2.377       .  S
Zr426       O435   2.357       .  S
Zr426       O438   2.373       .  S
Zr426       O436   2.388       .  S
O427        H447   0.990       .  S
O427        H452   0.989       .  S
O428        H448   0.990       .  S
Zr429       O430   2.434       .  S
Zr429       O431   2.433       .  S
Zr429       O435   2.361       .  S
Zr429       O434   2.360       .  S
Zr429       O439   2.360       .  S
Zr429       O437   2.355       .  S
O430        H446   0.990       .  S
O431        H445   0.990       .  S
O431        H455   0.990       .  S
Zr432       O435   2.366       .  S
Zr432       O437   2.383       .  S
Zr432       O438   2.387       .  S
Zr433       O434   2.398       .  S
Zr433       O436   2.400       .  S
Zr433       O439   2.395       .  S
O434        H442   0.965       .  S
O437        H441   0.966       .  S
O438        H443   0.966       .  S
C456        C457   1.397       .  A
C456        C461   1.417       .  A
C456       C2410   1.501       .  S
C457        C458   1.394       .  A
C457        H462   1.077       .  S
C458        C459   1.396       .  A
C458       C2349   1.471       .  S
C459        C460   1.407       .  A
C459        H463   1.084       .  S
C460        C461   1.413       .  A
C460       C2282   1.495       .  S
C461        H464   1.078       .  S
C465        C466   1.402       .  A
C465        C470   1.404       .  A
C465       C2317   1.481       .  S
C466        C467   1.401       .  A
C466        H471   1.081       .  S
C467        C468   1.407       .  A
C467       C2253   1.482       .  S
C468        C469   1.412       .  A
C468        H472   1.084       .  S
C469        C470   1.399       .  A
C469       C2269   1.493       .  S
C470        H473   1.084       .  S
C474        C475   1.398       .  A
C474        C479   1.407       .  A
C474       C2237   1.488       .  S
C475        C476   1.397       .  A
C475        H480   1.084       .  S
C476        C477   1.407       .  A
C476       C2301   1.477       .  S
C477        C478   1.408       .  A
C477        H481   1.083       .  S
C478        C479   1.405       .  A
C478       C2218   1.484       .  S
C479        H482   1.084       .  S
O483       Zr495   2.479       .  S
O483        C485   1.295   1_554  A
O484       Zr521   2.413   1_556  S
O484        C485   1.283       .  A
C485       C3498   1.488       .  S
O486       Zr498   2.417       .  S
O486        C488   1.283       .  A
O487       Zr522   2.461       .  S
O487        C488   1.293       .  A
C488       C2234   1.495       .  S
O489       Zr498   2.454       .  S
O489        C491   1.288       .  A
O490       Zr521   2.410   1_556  S
O490        C491   1.286   1_556  A
C491       C3053   1.493   1_554  S
O492       Zr495   2.449       .  S
O492        C494   1.288       .  A
O493       Zr522   2.448       .  S
O493        C494   1.291       .  A
C494       C2170   1.510       .  S
Zr495       O496   2.434       .  S
Zr495       O497   2.434       .  S
Zr495       O501   2.366       .  S
Zr495       O502   2.373       .  S
Zr495       O525   2.379       .  S
Zr495       O527   2.363       .  S
O496        H539   0.990       .  S
O497        H538   0.990       .  S
O497        H542   0.990       .  S
Zr498       O499   2.433       .  S
Zr498       O500   2.436       .  S
Zr498       O502   2.378       .  S
Zr498       O501   2.375       .  S
Zr498       O526   2.366       .  S
Zr498       O528   2.381       .  S
O499        H540   0.989       .  S
O499        H543   0.989       .  S
O500        H533   0.990       .  S
O501       Zr521   2.370       .  S
O502       Zr522   2.395       .  S
O502        H529   0.966       .  S
O503       Zr515   2.414       .  S
O503        C505   1.281       .  A
O504       Zr522   2.469       .  S
O504        C505   1.295       .  A
C505       C2186   1.498       .  S
O506       Zr518   2.488       .  S
O506        C508   1.298   1_554  A
O507       Zr521   2.383   1_556  S
O507        C508   1.275       .  A
C508       C3098   1.502       .  S
O509       Zr518   2.469       .  S
O509        C511   1.294       .  A
O510       Zr522   2.443       .  S
O510        C511   1.290       .  A
C511       C2266   1.504       .  S
O512       Zr515   2.409       .  S
O512        C514   1.281   1_554  A
O513       Zr521   2.437   1_556  S
O513        C514   1.286       .  A
C514       C2202   1.466       .  S
Zr515       O516   2.434       .  S
Zr515       O517   2.433       .  S
Zr515       O523   2.369       .  S
Zr515       O524   2.351       .  S
Zr515       O527   2.364       .  S
Zr515       O525   2.368       .  S
O516        H536   0.988       .  S
O516        H541   0.987       .  S
O517        H537   0.990       .  S
Zr518       O519   2.435       .  S
Zr518       O520   2.434       .  S
Zr518       O524   2.364       .  S
Zr518       O523   2.385       .  S
Zr518       O528   2.382       .  S
Zr518       O526   2.374       .  S
O519        H535   0.990       .  S
O520        H534   0.990       .  S
O520        H544   0.990       .  S
Zr521       O524   2.360       .  S
Zr521       O526   2.389       .  S
Zr521       O527   2.372       .  S
Zr522       O523   2.391       .  S
Zr522       O525   2.392       .  S
Zr522       O528   2.400       .  S
O523        H531   0.965       .  S
O526        H530   0.966       .  S
O527        H532   0.966       .  S
C545        C546   1.401       .  A
C545        C550   1.385       .  A
C545       C2141   1.468       .  S
C546        C547   1.428       .  A
C546        H551   1.080       .  S
C547        C548   1.419       .  A
C547       C2154   1.533       .  S
C548        C549   1.402       .  A
C548        H552   1.063       .  S
C549        C550   1.381       .  A
C549       C2122   1.469       .  S
C550        H553   1.086       .  S
C554        C555   1.412       .  A
C554        C559   1.397       .  A
C554       C2381   1.488       .  S
C555        C556   1.407       .  A
C555        H560   1.082       .  S
C556        C557   1.401       .  A
C556       C2106   1.483       .  S
C557        C558   1.394       .  A
C557        H561   1.083       .  S
C558        C559   1.399       .  A
C558       C2925   1.468       .  S
C559        H562   1.084       .  S
C563        C564   1.453       .  A
C563        C568   1.444       .  A
C563       C2157   1.563       .  S
C564        C565   1.432       .  A
C564       C3149   1.541       .  S
C565        C566   1.411       .  A
C565       C2109   1.513       .  S
C566        C567   1.413       .  A
C566       C2221   1.492       .  S
C567        C568   1.443       .  A
C567       C2090   1.520       .  S
C568       C2074   1.531       .  S
C569        C570   1.417       .  A
C569        C574   1.410       .  A
C569       C2093   1.496       .  S
C570        C571   1.415       .  A
C570        H575   1.078       .  S
C571        C572   1.406       .  A
C571       C2173   1.505       .  S
C572        C573   1.396       .  A
C572        H576   1.085       .  S
C573        C574   1.401       .  A
C573       C2061   1.481       .  S
C574        H577   1.084       .  S
O578       Zr590   2.425       .  S
O578        C580   1.282       .  A
O579       Zr616   2.419   1_556  S
O579        C580   1.287   1_556  A
C580       C2557   1.489   1_554  S
O581       Zr593   2.448       .  S
O581        C583   1.289       .  A
O582       Zr617   2.436       .  S
O582        C583   1.286       .  A
C583       C2058   1.497       .  S
O584       Zr593   2.460       .  S
O584        C586   1.290       .  A
O585       Zr616   2.425   1_556  S
O585        C586   1.287   1_556  A
C586       C3482   1.505   1_554  S
O587       Zr590   2.414       .  S
O587        C589   1.282       .  A
O588       Zr617   2.447       .  S
O588        C589   1.290       .  A
C589       C2029   1.478       .  S
Zr590       O591   2.432       .  S
Zr590       O592   2.436       .  S
Zr590       O596   2.364       .  S
Zr590       O597   2.356       .  S
Zr590       O620   2.372       .  S
Zr590       O622   2.364       .  S
O591        H634   0.990       .  S
O592        H633   0.989       .  S
O592        H637   0.990       .  S
Zr593       O594   2.431       .  S
Zr593       O595   2.434       .  S
Zr593       O597   2.367       .  S
Zr593       O596   2.364       .  S
Zr593       O621   2.373       .  S
Zr593       O623   2.379       .  S
O594        H635   0.990       .  S
O594        H638   0.990       .  S
O595        H628   0.990       .  S
O596       Zr616   2.368       .  S
O597       Zr617   2.382       .  S
O597        H624   0.964       .  S
O598       Zr610   2.473       .  S
O598        C600   1.295       .  A
O599       Zr617   2.430       .  S
O599        C600   1.285       .  A
C600       C2042   1.510       .  S
O601       Zr613   2.459       .  S
O601        C603   1.290       .  A
O602       Zr616   2.421   1_556  S
O602        C603   1.285   1_556  A
C603       C2845   1.487   1_554  S
O604       Zr613   2.432       .  S
O604        C606   1.285       .  A
O605       Zr617   2.453       .  S
O605        C606   1.293       .  A
C606       C2445   1.482       .  S
O607       Zr610   2.452       .  S
O607        C609   1.292   1_554  A
O608       Zr616   2.403   1_556  S
O608        C609   1.280       .  A
C609       C2589   1.499       .  S
Zr610       O611   2.437       .  S
Zr610       O612   2.434       .  S
Zr610       O618   2.355       .  S
Zr610       O619   2.376       .  S
Zr610       O622   2.374       .  S
Zr610       O620   2.376       .  S
O611        H631   0.990       .  S
O611        H636   0.990       .  S
O612        H632   0.990       .  S
Zr613       O614   2.433       .  S
Zr613       O615   2.433       .  S
Zr613       O619   2.365       .  S
Zr613       O618   2.378       .  S
Zr613       O623   2.385       .  S
Zr613       O621   2.366       .  S
O614        H630   0.990       .  S
O615        H629   0.990       .  S
O615        H639   0.990       .  S
Zr616       O619   2.378       .  S
Zr616       O621   2.386       .  S
Zr616       O622   2.390       .  S
Zr617       O618   2.377       .  S
Zr617       O620   2.392       .  S
Zr617       O623   2.401       .  S
O618        H626   0.954       .  S
O621        H625   0.966       .  S
O622        H627   0.966       .  S
C640        C641   1.411       .  A
C640        C645   1.400       .  A
C640       C2045   1.491       .  S
C641        C642   1.406       .  A
C641        H646   1.084       .  S
C642        C643   1.406       .  A
C642       C2509   1.489       .  S
C643        C644   1.406       .  A
C643        H647   1.084       .  S
C644        C645   1.402       .  A
C644       C2010   1.479       .  S
C645        H648   1.082       .  S
C649        C650   1.404       .  A
C649        C654   1.393       .  A
C649       C2026   1.492       .  S
C650        C651   1.420       .  A
C650        H655   1.077       .  S
C651        C652   1.416       .  A
C651       C2077   1.514       .  S
C652        C653   1.406       .  A
C652        H656   1.079       .  S
C653        C654   1.392       .  A
C653       C1997   1.474       .  S
C654        H657   1.085       .  S
C658        C659   1.399       .  A
C658        C663   1.419       .  A
C658       C1978   1.500       .  S
C659        C660   1.389       .  A
C659        H664   1.082       .  S
C660        C661   1.395       .  A
C660       C2189   1.479       .  S
C661        C662   1.419       .  A
C661        H665   1.072       .  S
C662        C663   1.424       .  A
C662       C1965   1.527       .  S
C663        H666   1.080       .  S
C667        C668   1.413       .  A
C667        C672   1.436       .  A
C667       C2250   1.493       .  S
C668        C669   1.413       .  A
C668       C3277   1.506       .  S
C669        C670   1.429       .  A
C669       C1946   1.513       .  S
C670        C671   1.454       .  A
C670       C1933   1.504       .  S
C671        C672   1.443       .  A
C671       C1914   1.547       .  S
C672       C1962   1.543       .  S
C673        C674   1.399       .  A
C673        C678   1.395       .  A
C673       C1901   1.467       .  S
C674        C675   1.402       .  A
C674        H679   1.083       .  S
C675        C676   1.404       .  A
C675       C1930   1.473       .  S
C676        C677   1.403       .  A
C676        H680   1.084       .  S
C677        C678   1.396       .  A
C677       C1882   1.469       .  S
C678        H681   1.085       .  S
O682       Zr694   2.434   1_565  S
O682        C684   1.286       .  A
O683       Zr720   2.452       .  S
O683        C684   1.290   1_545  A
C684       C2013   1.481       .  S
O685       Zr697   2.465   1_565  S
O685        C687   1.290       .  A
O686       Zr721   2.397       .  S
O686        C687   1.283   1_545  A
C687       C2138   1.496       .  S
O688       Zr697   2.428       .  S
O688        C690   1.287       .  A
O689       Zr720   2.435       .  S
O689        C690   1.286       .  A
C690       C3213   1.503   1_545  S
O691       Zr694   2.465   1_565  S
O691        C693   1.293       .  A
O692       Zr721   2.409       .  S
O692        C693   1.281   1_545  A
C693       C1994   1.482       .  S
Zr694       O695   2.436   1_545  S
Zr694       O696   2.434       .  S
Zr694       O700   2.372       .  S
Zr694       O701   2.365       .  S
Zr694       O724   2.366       .  S
Zr694       O726   2.378       .  S
O695        H738   0.991       .  S
O696        H737   0.990       .  S
O696        H741   0.990       .  S
Zr697       O698   2.433   1_545  S
Zr697       O699   2.434       .  S
Zr697       O701   2.358       .  S
Zr697       O700   2.370       .  S
Zr697       O725   2.374       .  S
Zr697       O727   2.366       .  S
O698        H739   0.990       .  S
O698        H742   0.990       .  S
O699        H732   0.990       .  S
O700       Zr720   2.372       .  S
O701       Zr721   2.377       .  S
O701        H728   0.962   1_545  S
O702       Zr714   2.475       .  S
O702        C704   1.293       .  A
O703       Zr721   2.396       .  S
O703        C704   1.280       .  A
C704       C1834   1.472       .  S
O705       Zr717   2.400       .  S
O705        C707   1.278       .  A
O706       Zr720   2.441       .  S
O706        C707   1.290       .  A
C707       C1866   1.472       .  S
O708       Zr717   2.441       .  S
O708        C710   1.289       .  A
O709       Zr721   2.413       .  S
O709        C710   1.281       .  A
C710       C1898   1.498       .  S
O711       Zr714   2.460       .  S
O711        C713   1.291       .  A
O712       Zr720   2.446       .  S
O712        C713   1.290       .  A
C713       C1850   1.510       .  S
Zr714       O715   2.436       .  S
Zr714       O716   2.434       .  S
Zr714       O722   2.364       .  S
Zr714       O723   2.370       .  S
Zr714       O726   2.387       .  S
Zr714       O724   2.384       .  S
O715        H735   0.990       .  S
O715        H740   0.990       .  S
O716        H736   0.990       .  S
Zr717       O718   2.434       .  S
Zr717       O719   2.434       .  S
Zr717       O723   2.378       .  S
Zr717       O722   2.349       .  S
Zr717       O727   2.361       .  S
Zr717       O725   2.371       .  S
O718        H734   0.990       .  S
O719        H733   0.990       .  S
O719        H743   0.990       .  S
Zr720       O723   2.384       .  S
Zr720       O725   2.402       .  S
Zr720       O726   2.401       .  S
Zr721       O722   2.373       .  S
Zr721       O724   2.384       .  S
Zr721       O727   2.381       .  S
O722        H730   0.964       .  S
O725        H729   0.966       .  S
O726        H731   0.966       .  S
O744       Zr756   2.423       .  S
O744        C746   1.282       .  A
O745       Zr782   2.435       .  S
O745        C746   1.291       .  A
C746       C3290   1.492       .  S
O747       Zr759   2.439       .  S
O747        C749   1.287       .  A
O748       Zr783   2.446       .  S
O748        C749   1.290       .  A
C749       C1738   1.474       .  S
O750       Zr759   2.448       .  S
O750        C752   1.289       .  A
O751       Zr782   2.434       .  S
O751        C752   1.287       .  A
C752       C1754   1.480       .  S
O753       Zr756   2.447       .  S
O753        C755   1.287       .  A
O754       Zr783   2.445       .  S
O754        C755   1.291       .  A
C755       C1818   1.501       .  S
Zr756       O757   2.428   1_554  S
Zr756       O758   2.434       .  S
Zr756       O762   2.383       .  S
Zr756       O763   2.352       .  S
Zr756       O786   2.371       .  S
Zr756       O788   2.374       .  S
O757        H800   0.990       .  S
O758        H799   0.990       .  S
O758        H803   0.990       .  S
Zr759       O760   2.437   1_554  S
Zr759       O761   2.435       .  S
Zr759       O763   2.370       .  S
Zr759       O762   2.371       .  S
Zr759       O787   2.367       .  S
Zr759       O789   2.371       .  S
O760        H801   0.990       .  S
O760        H804   0.990       .  S
O761        H794   0.990       .  S
O762       Zr782   2.381       .  S
O763       Zr783   2.382       .  S
O763        H790   0.964       .  S
O764       Zr776   2.416       .  S
O764        C766   1.282       .  A
O765       Zr783   2.489       .  S
O765        C766   1.299       .  A
C766       C1981   1.494       .  S
O767       Zr779   2.462       .  S
O767        C769   1.291       .  A
O768       Zr782   2.449       .  S
O768        C769   1.291       .  A
C769       C1786   1.514       .  S
O770       Zr779   2.444       .  S
O770        C772   1.291       .  A
O771       Zr783   2.396       .  S
O771        C772   1.278       .  A
C772       C1805   1.494       .  S
O773       Zr776   2.435       .  S
O773        C775   1.285       .  A
O774       Zr782   2.408       .  S
O774        C775   1.284       .  A
C775       C1773   1.477       .  S
Zr776       O777   2.438       .  S
Zr776       O778   2.435       .  S
Zr776       O784   2.372       .  S
Zr776       O785   2.359       .  S
Zr776       O788   2.363       .  S
Zr776       O786   2.385       .  S
O777        H797   0.990       .  S
O777        H802   0.990       .  S
O778        H798   0.990       .  S
Zr779       O780   2.433       .  S
Zr779       O781   2.433       .  S
Zr779       O785   2.361       .  S
Zr779       O784   2.368       .  S
Zr779       O789   2.368       .  S
Zr779       O787   2.368       .  S
O780        H796   0.990       .  S
O781        H795   0.990       .  S
O781        H805   0.990       .  S
Zr782       O785   2.374       .  S
Zr782       O787   2.390       .  S
Zr782       O788   2.393       .  S
Zr783       O784   2.393       .  S
Zr783       O786   2.389       .  S
Zr783       O789   2.404       .  S
O784        H792   0.965       .  S
O787        H791   0.966       .  S
O788        H793   0.966       .  S
C806        C807   1.418       .  A
C806        C811   1.414       .  A
C806       C1722   1.500       .  S
C807        C808   1.417       .  A
C807        H812   1.083       .  S
C808        C809   1.407       .  A
C808       C1853   1.510       .  S
C809        C810   1.397       .  A
C809        H813   1.085       .  S
C810        C811   1.408       .  A
C810       C1789   1.492       .  S
C811        H814   1.083       .  S
C815        C816   1.395       .  A
C815        C820   1.406       .  A
C815       C1706   1.480       .  S
C816        C817   1.395       .  A
C816        H821   1.084       .  S
C817        C818   1.409       .  A
C817       C1757   1.478       .  S
C818        C819   1.407       .  A
C818        H822   1.084       .  S
C819        C820   1.407       .  A
C819       C1690   1.487       .  S
C820        H823   1.083       .  S
C824        C825   1.393       .  A
C824        C829   1.401       .  A
C824       C1741   1.481       .  S
C825        C826   1.396       .  A
C825        H830   1.085       .  S
C826        C827   1.411       .  A
C826       C1674   1.486       .  S
C827        C828   1.419       .  A
C827        H831   1.080       .  S
C828        C829   1.418       .  A
C828       C1658   1.513       .  S
C829        H832   1.082       .  S
O833       Zr845   2.479       .  S
O833        C835   1.294   1_545  A
O834       Zr871   2.392       .  S
O834        C835   1.278       .  A
C835       C3405   1.480       .  S
O836       Zr848   2.456       .  S
O836        C838   1.288       .  A
O837       Zr872   2.425       .  S
O837        C838   1.287       .  A
C838       C1677   1.501       .  S
O839       Zr848   2.445       .  S
O839        C841   1.286   1_545  A
O840       Zr871   2.412       .  S
O840        C841   1.286       .  A
C841       C2573   1.491       .  S
O842       Zr845   2.437       .  S
O842        C844   1.288       .  A
O843       Zr872   2.415       .  S
O843        C844   1.284       .  A
C844       C1629   1.460       .  S
Zr845       O846   2.434       .  S
Zr845       O847   2.434       .  S
Zr845       O851   2.368       .  S
Zr845       O852   2.380       .  S
Zr845       O875   2.383       .  S
Zr845       O877   2.358       .  S
O846        H889   0.990       .  S
O847        H888   0.990       .  S
O847        H892   0.990       .  S
Zr848       O849   2.435       .  S
Zr848       O850   2.434       .  S
Zr848       O852   2.363       .  S
Zr848       O851   2.381       .  S
Zr848       O876   2.385       .  S
Zr848       O878   2.384       .  S
O849        H890   0.990       .  S
O849        H893   0.989       .  S
O850        H883   0.990       .  S
O851       Zr871   2.360   1_545  S
O852       Zr872   2.383       .  S
O852        H879   0.965       .  S
O853       Zr865   2.462       .  S
O853        C855   1.291       .  A
O854       Zr872   2.410       .  S
O854        C855   1.283       .  A
C855       C1642   1.496       .  S
O856       Zr868   2.469       .  S
O856        C858   1.290   1_545  A
O857       Zr871   2.379       .  S
O857        C858   1.280       .  A
C858       C2605   1.499       .  S
O859       Zr868   2.439       .  S
O859        C861   1.285       .  A
O860       Zr872   2.437       .  S
O860        C861   1.290       .  A
C861       C1709   1.500       .  S
O862       Zr865   2.455       .  S
O862        C864   1.292   1_545  A
O863       Zr871   2.397       .  S
O863        C864   1.280       .  A
C864       C2813   1.471       .  S
Zr865       O866   2.437       .  S
Zr865       O867   2.434       .  S
Zr865       O873   2.366       .  S
Zr865       O874   2.362       .  S
Zr865       O877   2.374       .  S
Zr865       O875   2.370       .  S
O866        H886   0.990       .  S
O866        H891   0.990       .  S
O867        H887   0.990       .  S
Zr868       O869   2.430       .  S
Zr868       O870   2.434       .  S
Zr868       O874   2.354       .  S
Zr868       O873   2.378       .  S
Zr868       O878   2.390       .  S
Zr868       O876   2.374       .  S
O869        H885   0.990       .  S
O870        H884   0.990       .  S
O870        H894   0.990       .  S
Zr871       O874   2.363   1_565  S
Zr871       O876   2.376   1_565  S
Zr871       O877   2.377   1_565  S
Zr872       O873   2.382       .  S
Zr872       O875   2.392       .  S
Zr872       O878   2.384       .  S
O873        H881   0.965       .  S
O876        H880   0.966       .  S
O877        H882   0.966       .  S
C895        C896   1.403       .  A
C895        C900   1.415       .  A
C895       C1821   1.499       .  S
C896        C897   1.396       .  A
C896        H901   1.085       .  S
C897        C898   1.395       .  A
C897       C2205   1.470       .  S
C898        C899   1.400       .  A
C898        H902   1.084       .  S
C899        C900   1.415       .  A
C899       C1610   1.487       .  S
C900        H903   1.080       .  S
C904        C905   1.417       .  A
C904        C909   1.405       .  A
C904       C1594   1.493       .  S
C905        C906   1.415       .  A
C905        H910   1.083       .  S
C906        C907   1.399       .  A
C906       C2669   1.491       .  S
C907        C908   1.398       .  A
C907        H911   1.085       .  S
C908        C909   1.397       .  A
C908       C1578   1.472       .  S
C909        H912   1.085       .  S
C913        C914   1.429       .  A
C913        C918   1.432       .  A
C913       C1597   1.517       .  S
C914        C915   1.425       .  A
C914       C3069   1.498       .  S
C915        C916   1.423       .  A
C915       C1613   1.509       .  S
C916        C917   1.433       .  A
C916       C1661   1.536       .  S
C917        C918   1.429       .  A
C917       C1562   1.534       .  S
C918       C1546   1.504       .  S
C919        C920   1.397       .  A
C919        C924   1.388       .  A
C919       C1626   1.470       .  S
C920        C921   1.411       .  A
C920        H925   1.067       .  S
C921        C922   1.425       .  A
C921       C1565   1.520       .  S
C922        C923   1.412       .  A
C922        H926   1.081       .  S
C923        C924   1.394       .  A
C923       C1533   1.486       .  S
C924        H927   1.085       .  S
O928       Zr940   2.415   1_565  S
O928        C930   1.280       .  A
O929       Zr966   2.437       .  S
O929        C930   1.292   1_545  A
C930       C3389   1.491       .  S
O931       Zr943   2.444   1_565  S
O931        C933   1.288       .  A
O932       Zr967   2.428       .  S
O932        C933   1.287   1_545  A
C933       C3165   1.498       .  S
O934       Zr943   2.443   1_565  S
O934        C936   1.288       .  A
O935       Zr966   2.438       .  S
O935        C936   1.289   1_545  A
C936       C3117   1.478       .  S
O937       Zr940   2.444   1_565  S
O937        C939   1.285   1_565  A
O938       Zr967   2.404       .  S
O938        C939   1.284       .  A
C939       C2125   1.495   1_545  S
Zr940       O941   2.428   1_545  S
Zr940       O942   2.435       .  S
Zr940       O946   2.376       .  S
Zr940       O947   2.359       .  S
Zr940       O970   2.362       .  S
Zr940       O972   2.380       .  S
O941        H984   0.990       .  S
O942        H983   0.990       .  S
O942        H987   0.990       .  S
Zr943       O944   2.435   1_545  S
Zr943       O945   2.434   1_545  S
Zr943       O947   2.366       .  S
Zr943       O946   2.366       .  S
Zr943       O971   2.367       .  S
Zr943       O973   2.378       .  S
O944        H985   0.990       .  S
O944        H988   0.990       .  S
O945        H978   0.990   1_565  S
O946       Zr966   2.374       .  S
O947       Zr967   2.368       .  S
O947        H974   0.965   1_545  S
O948       Zr960   2.456       .  S
O948        C950   1.291       .  A
O949       Zr967   2.411       .  S
O949        C950   1.281       .  A
C950       C1885   1.501       .  S
O951       Zr963   2.431       .  S
O951        C953   1.285       .  A
O952       Zr966   2.420       .  S
O952        C953   1.279       .  A
C953       C1501   1.494       .  S
O954       Zr963   2.457       .  S
O954        C956   1.291       .  A
O955       Zr967   2.401       .  S
O955        C956   1.279       .  A
C956       C1514   1.474       .  S
O957       Zr960   2.442       .  S
O957        C959   1.287       .  A
O958       Zr966   2.442       .  S
O958        C959   1.291       .  A
C959       C1530   1.496       .  S
Zr960       O961   2.438       .  S
Zr960       O962   2.434       .  S
Zr960       O968   2.363       .  S
Zr960       O969   2.365       .  S
Zr960       O972   2.376       .  S
Zr960       O970   2.373       .  S
O961        H981   0.990       .  S
O961        H986   0.990       .  S
O962        H982   0.990       .  S
Zr963       O964   2.435       .  S
Zr963       O965   2.435       .  S
Zr963       O969   2.370       .  S
Zr963       O968   2.366       .  S
Zr963       O973   2.364       .  S
Zr963       O971   2.368       .  S
O964        H980   0.990       .  S
O965        H979   0.990       .  S
O965        H989   0.990       .  S
Zr966       O969   2.385       .  S
Zr966       O971   2.399       .  S
Zr966       O972   2.398       .  S
Zr967       O968   2.379       .  S
Zr967       O970   2.383       .  S
Zr967       O973   2.383       .  S
O968        H976   0.964       .  S
O971        H975   0.966       .  S
O972        H977   0.966       .  S
C990        C991   1.414       .  A
C990        C995   1.415       .  A
C990       C1949   1.494       .  S
C991        C992   1.407       .  A
C991        H996   1.083       .  S
C992        C993   1.387       .  A
C992       C1517   1.471       .  S
C993        C994   1.388       .  A
C993        H997   1.087       .  S
C994        C995   1.410       .  A
C994       C1482   1.479       .  S
C995        H998   1.083       .  S
C999       C1000   1.423       .  A
C999       C1004   1.420       .  A
C999       C1469   1.537       .  S
C1000      C1001   1.413       .  A
C1000      H1005   1.073       .  S
C1001      C1002   1.393       .  A
C1001      C1549   1.485       .  S
C1002      C1003   1.393       .  A
C1002      H1006   1.084       .  S
C1003      C1004   1.401       .  A
C1003      C1498   1.478       .  S
C1004      H1007   1.075       .  S
C1008      C1009   1.412       .  A
C1008      C1013   1.410       .  A
C1008      C1437   1.492       .  S
C1009      C1010   1.415       .  A
C1009      H1014   1.080       .  S
C1010      C1011   1.403       .  A
C1010      C1645   1.507       .  S
C1011      C1012   1.398       .  A
C1011      H1015   1.084       .  S
C1012      C1013   1.406       .  A
C1012      C1450   1.485       .  S
C1013      H1016   1.083       .  S
C1017      C1018   1.423       .  A
C1017      C1022   1.424       .  A
C1017      C3325   1.494       .  S
C1018      C1019   1.418       .  A
C1018      C2637   1.496       .  S
C1019      C1020   1.419       .  A
C1019      C1418   1.508       .  S
C1020      C1021   1.422       .  A
C1020      C1402   1.484       .  S
C1021      C1022   1.420       .  A
C1021      C1434   1.505       .  S
C1022      C1693   1.501       .  S
O1023     Zr1035   2.440       .  S
O1023      C1025   1.286   1_545  A
O1024     Zr1061   2.437       .  S
O1024      C1025   1.289       .  A
C1025      C3018   1.474       .  S
O1026     Zr1038   2.424       .  S
O1026      C1028   1.284       .  A
O1027     Zr1062   2.427       .  S
O1027      C1028   1.285       .  A
C1028      C1386   1.472       .  S
O1029     Zr1038   2.426       .  S
O1029      C1031   1.286   1_545  A
O1030     Zr1061   2.420       .  S
O1030      C1031   1.283       .  A
C1031      C3197   1.475       .  S
O1032     Zr1035   2.442       .  S
O1032      C1034   1.289       .  A
O1033     Zr1062   2.444       .  S
O1033      C1034   1.289       .  A
C1034      C1354   1.502       .  S
Zr1035     O1036   2.433       .  S
Zr1035     O1037   2.435       .  S
Zr1035     O1041   2.365       .  S
Zr1035     O1042   2.368       .  S
Zr1035     O1065   2.371       .  S
Zr1035     O1067   2.375       .  S
O1036      H1079   0.990       .  S
O1037      H1078   0.990       .  S
O1037      H1082   0.990       .  S
Zr1038     O1039   2.440       .  S
Zr1038     O1040   2.434       .  S
Zr1038     O1042   2.384       .  S
Zr1038     O1041   2.365       .  S
Zr1038     O1066   2.363       .  S
Zr1038     O1068   2.365       .  S
O1039      H1080   0.990       .  S
O1039      H1083   0.990       .  S
O1040      H1073   0.990       .  S
O1041     Zr1061   2.368   1_545  S
O1042     Zr1062   2.383       .  S
O1042      H1069   0.965       .  S
O1043     Zr1055   2.435       .  S
O1043      C1045   1.287       .  A
O1044     Zr1062   2.412       .  S
O1044      C1045   1.281       .  A
C1045      C1370   1.493       .  S
O1046     Zr1058   2.457       .  S
O1046      C1048   1.291   1_545  A
O1047     Zr1061   2.419       .  S
O1047      C1048   1.286       .  A
C1048      C2797   1.488       .  S
O1049     Zr1058   2.465       .  S
O1049      C1051   1.291       .  A
O1050     Zr1062   2.429       .  S
O1050      C1051   1.289       .  A
C1051      C1453   1.508       .  S
O1052     Zr1055   2.437       .  S
O1052      C1054   1.285   1_545  A
O1053     Zr1061   2.414       .  S
O1053      C1054   1.285       .  A
C1054      C2970   1.469       .  S
Zr1055     O1056   2.438       .  S
Zr1055     O1057   2.434       .  S
Zr1055     O1063   2.364       .  S
Zr1055     O1064   2.360       .  S
Zr1055     O1067   2.375       .  S
Zr1055     O1065   2.375       .  S
O1056      H1076   0.990       .  S
O1056      H1081   0.990       .  S
O1057      H1077   0.990       .  S
Zr1058     O1059   2.419       .  S
Zr1058     O1060   2.434       .  S
Zr1058     O1064   2.361       .  S
Zr1058     O1063   2.364       .  S
Zr1058     O1068   2.377       .  S
Zr1058     O1066   2.379       .  S
O1059      H1075   0.990       .  S
O1060      H1074   0.990       .  S
O1060      H1084   0.990       .  S
Zr1061     O1064   2.369   1_565  S
Zr1061     O1066   2.394   1_565  S
Zr1061     O1067   2.388   1_565  S
Zr1062     O1063   2.385       .  S
Zr1062     O1065   2.387       .  S
Zr1062     O1068   2.391       .  S
O1063      H1071   0.965       .  S
O1066      H1070   0.966       .  S
O1067      H1072   0.966       .  S
O1085     Zr1097   2.435   1_655  S
O1085      C1087   1.286       .  A
O1086     Zr1123   2.456       .  S
O1086      C1087   1.292       .  A
C1087      C3245   1.487       .  S
O1088     Zr1100   2.483       .  S
O1088      C1090   1.295       .  A
O1089     Zr1124   2.389       .  S
O1089      C1090   1.276       .  A
C1090      C1338   1.497       .  S
O1091     Zr1100   2.427   1_655  S
O1091      C1093   1.286       .  A
O1092     Zr1123   2.436       .  S
O1092      C1093   1.288       .  A
C1093      C1485   1.492       .  S
O1094     Zr1097   2.450       .  S
O1094      C1096   1.290       .  A
O1095     Zr1124   2.394       .  S
O1095      C1096   1.279       .  A
C1096      C1309   1.469       .  S
Zr1097     O1098   2.433       .  S
Zr1097     O1099   2.434       .  S
Zr1097     O1103   2.377       .  S
Zr1097     O1104   2.364       .  S
Zr1097     O1127   2.369       .  S
Zr1097     O1129   2.370   1_455  S
O1098      H1141   0.990       .  S
O1099      H1140   0.990       .  S
O1099      H1144   0.990       .  S
Zr1100     O1101   2.437       .  S
Zr1100     O1102   2.434       .  S
Zr1100     O1104   2.358       .  S
Zr1100     O1103   2.388       .  S
Zr1100     O1128   2.389       .  S
Zr1100     O1130   2.369       .  S
O1101      H1142   0.990       .  S
O1101      H1145   0.990       .  S
O1102      H1135   0.990       .  S
O1103     Zr1123   2.381   1_455  S
O1104     Zr1124   2.372       .  S
O1104      H1131   0.964       .  S
O1105     Zr1117   2.473       .  S
O1105      C1107   1.293       .  A
O1106     Zr1124   2.392       .  S
O1106      C1107   1.280       .  A
C1107      C1290   1.490       .  S
O1108     Zr1120   2.437   1_655  S
O1108      C1110   1.286       .  A
O1109     Zr1123   2.457       .  S
O1109      C1110   1.292       .  A
C1110      C1466   1.487       .  S
O1111     Zr1120   2.454       .  S
O1111      C1113   1.287       .  A
O1112     Zr1124   2.397       .  S
O1112      C1113   1.283       .  A
C1113      C1322   1.499       .  S
O1114     Zr1117   2.443   1_655  S
O1114      C1116   1.289       .  A
O1115     Zr1123   2.417       .  S
O1115      C1116   1.286       .  A
C1116      C1581   1.475       .  S
Zr1117     O1118   2.435       .  S
Zr1117     O1119   2.434       .  S
Zr1117     O1125   2.358       .  S
Zr1117     O1126   2.372       .  S
Zr1117     O1129   2.382   1_455  S
Zr1117     O1127   2.368       .  S
O1118      H1138   0.990       .  S
O1118      H1143   0.990       .  S
O1119      H1139   0.990       .  S
Zr1120     O1121   2.431       .  S
Zr1120     O1122   2.433       .  S
Zr1120     O1126   2.368       .  S
Zr1120     O1125   2.368       .  S
Zr1120     O1130   2.377       .  S
Zr1120     O1128   2.381       .  S
O1121      H1137   0.990       .  S
O1122      H1136   0.990       .  S
O1122      H1146   0.990       .  S
Zr1123     O1126   2.380   1_655  S
Zr1123     O1128   2.398   1_655  S
Zr1123     O1129   2.394       .  S
Zr1124     O1125   2.371       .  S
Zr1124     O1127   2.377       .  S
Zr1124     O1130   2.376       .  S
O1125      H1133   0.965       .  S
O1128      H1132   0.966   1_455  S
O1129      H1134   0.966       .  S
C1147      C1148   1.407       .  A
C1147      C1152   1.395       .  A
C1147      C1357   1.486       .  S
C1148      C1149   1.410       .  A
C1148      H1153   1.084       .  S
C1149      C1150   1.415       .  A
C1149      C1274   1.497       .  S
C1150      C1151   1.411       .  A
C1150      H1154   1.083       .  S
C1151      C1152   1.397       .  A
C1151      C1341   1.484       .  S
C1152      H1155   1.085       .  S
C1156      C1157   1.408       .  A
C1156      C1161   1.418       .  A
C1156      C1421   1.494       .  S
C1157      C1158   1.401       .  A
C1157      H1162   1.083       .  S
C1158      C1159   1.390       .  A
C1158      C2685   1.477       .  S
C1159      C1160   1.403       .  A
C1159      H1163   1.083       .  S
C1160      C1161   1.423       .  A
C1160      C1293   1.518       .  S
C1161      H1164   1.076       .  S
C1165      C1166   1.402       .  A
C1165      C1170   1.392       .  A
C1165      C1325   1.466       .  S
C1166      C1167   1.404       .  A
C1166      H1171   1.084       .  S
C1167      C1168   1.401       .  A
C1167      C1405   1.471       .  S
C1168      C1169   1.397       .  A
C1168      H1172   1.084       .  S
C1169      C1170   1.393       .  A
C1169      C1373   1.462       .  S
C1170      H1173   1.085       .  S
C1174      C1175   1.419       .  A
C1174      C1179   1.413       .  A
C1174      C1917   1.503       .  S
C1175      C1176   1.410       .  A
C1175      H1180   1.078       .  S
C1176      C1177   1.395       .  A
C1176      C1837   1.492       .  S
C1177      C1178   1.387       .  A
C1177      H1181   1.081       .  S
C1178      C1179   1.402       .  A
C1178      C1802   1.483       .  S
C1179      H1182   1.081       .  S
C1183      C1184   1.404       .  A
C1183      C1188   1.394       .  A
C1183      C2397   1.486       .  S
C1184      C1185   1.411       .  A
C1184      H1189   1.083       .  S
C1185      C1186   1.420       .  A
C1185      C2477   1.494       .  S
C1186      C1187   1.416       .  A
C1186      H1190   1.082       .  S
C1187      C1188   1.395       .  A
C1187      C2365   1.499       .  S
C1188      H1191   1.082       .  S
C1192      C1193   1.403       .  A
C1192      C1197   1.412       .  A
C1192      C2426   1.501       .  S
C1193      C1194   1.399       .  A
C1193      H1198   1.081       .  S
C1194      C1195   1.397       .  A
C1194      C1770   1.481       .  S
C1195      C1196   1.399       .  A
C1195      H1199   1.081       .  S
C1196      C1197   1.407       .  A
C1196      C1258   1.476       .  S
C1197      H1200   1.081       .  S
C1201      C1202   1.393       .  A
C1201      C1206   1.398       .  A
C1201      C1389   1.468       .  S
C1202      C1203   1.404       .  A
C1202      H1207   1.084       .  S
C1203      C1204   1.401       .  A
C1203      C1869   1.496       .  S
C1204      C1205   1.402       .  A
C1204      H1208   1.073       .  S
C1205      C1206   1.402       .  A
C1205      C1242   1.470       .  S
C1206      H1209   1.084       .  S
C1210      C1211   1.394       .  A
C1210      C1215   1.404       .  A
C1210      C1306   1.468       .  S
C1211      C1212   1.390       .  A
C1211      H1216   1.086       .  S
C1212      C1213   1.401       .  A
C1212      C2333   1.472       .  S
C1213      C1214   1.412       .  A
C1213      H1217   1.082       .  S
C1214      C1215   1.407       .  A
C1214      C1226   1.491       .  S
C1215      H1218   1.082       .  S
C1219      C1220   1.424       .  A
C1219      C1224   1.411       .  A
C1219      C1261   1.491       .  S
C1220      C1221   1.442       .  A
C1220      C2285   1.505       .  S
C1221      C1222   1.444       .  A
C1221      C1229   1.538       .  S
C1222      C1223   1.433       .  A
C1222      C1277   1.520       .  S
C1223      C1224   1.419       .  A
C1223      C1245   1.485       .  S
C1224      C1725   1.520       .  S
C1225      C1226   1.411       .  A
C1225      C1230   1.405       .  A
C1225      H1232   1.084       .  S
C1226      C1227   1.422       .  A
C1227      C1228   1.412       .  A
C1227      C1234   1.520       .  S
C1228      C1229   1.410       .  A
C1228      H1233   1.068       .  S
C1229      C1230   1.415       .  A
C1230      C1231   1.525       .  S
C1231      F1235   1.376       .  S
C1231      F1236   1.387       .  S
C1231      F1237   1.382       .  S
C1234      F1238   1.381       .  S
C1234      F1239   1.383       .  S
C1234      F1240   1.383       .  S
C1241      C1242   1.405       .  A
C1241      C1246   1.408       .  A
C1241      H1248   1.085       .  S
C1242      C1243   1.407       .  A
C1243      C1244   1.397       .  A
C1243      C1250   1.520       .  S
C1244      C1245   1.404       .  A
C1244      H1249   1.077       .  S
C1245      C1246   1.417       .  A
C1246      C1247   1.516       .  S
C1247      F1251   1.383       .  S
C1247      F1252   1.380       .  S
C1247      F1253   1.383       .  S
C1250      F1254   1.381       .  S
C1250      F1255   1.383       .  S
C1250      F1256   1.385       .  S
C1257      C1258   1.404       .  A
C1257      C1262   1.406       .  A
C1257      H1264   1.085       .  S
C1258      C1259   1.409       .  A
C1259      C1260   1.402       .  A
C1259      C1266   1.517       .  S
C1260      C1261   1.407       .  A
C1260      H1265   1.082       .  S
C1261      C1262   1.418       .  A
C1262      C1263   1.515       .  S
C1263      F1267   1.383       .  S
C1263      F1268   1.384       .  S
C1263      F1269   1.377       .  S
C1266      F1270   1.382       .  S
C1266      F1271   1.383       .  S
C1266      F1272   1.385       .  S
C1273      C1274   1.402       .  A
C1273      C1278   1.411       .  A
C1273      H1280   1.085       .  S
C1274      C1275   1.415       .  A
C1275      C1276   1.413       .  A
C1275      C1282   1.518       .  S
C1276      C1277   1.410       .  A
C1276      H1281   1.079       .  S
C1277      C1278   1.430       .  A
C1278      C1279   1.516       .  S
C1279      F1283   1.383       .  S
C1279      F1284   1.378       .  S
C1279      F1285   1.382       .  S
C1282      F1286   1.380       .  S
C1282      F1287   1.384       .  S
C1282      F1288   1.385       .  S
C1289      C1290   1.412       .  A
C1289      C1294   1.413       .  A
C1289      H1296   1.084       .  S
C1290      C1291   1.410       .  A
C1291      C1292   1.399       .  A
C1291      C1298   1.522       .  S
C1292      C1293   1.420       .  A
C1292      H1297   1.076       .  S
C1293      C1294   1.421       .  A
C1294      C1295   1.514       .  S
C1295      F1299   1.385       .  S
C1295      F1300   1.381       .  S
C1295      F1301   1.383       .  S
C1298      F1302   1.381       .  S
C1298      F1303   1.384       .  S
C1298      F1304   1.385       .  S
C1305      C1306   1.403       .  A
C1305      C1310   1.407       .  A
C1305      H1312   1.083       .  S
C1306      C1307   1.414       .  A
C1307      C1308   1.399       .  A
C1307      C1314   1.521       .  S
C1308      C1309   1.402       .  A
C1308      H1313   1.084       .  S
C1309      C1310   1.417       .  A
C1310      C1311   1.520       .  S
C1311      F1315   1.384       .  S
C1311      F1316   1.382       .  S
C1311      F1317   1.384       .  S
C1314      F1318   1.382       .  S
C1314      F1319   1.383       .  S
C1314      F1320   1.385       .  S
C1321      C1322   1.415       .  A
C1321      C1326   1.398       .  A
C1321      H1328   1.081       .  S
C1322      C1323   1.429       .  A
C1323      C1324   1.409       .  A
C1323      C1330   1.519       .  S
C1324      C1325   1.397       .  A
C1324      H1329   1.083       .  S
C1325      C1326   1.408       .  A
C1326      C1327   1.523       .  S
C1327      F1331   1.384       .  S
C1327      F1332   1.382       .  S
C1327      F1333   1.381       .  S
C1330      F1334   1.384       .  S
C1330      F1335   1.381       .  S
C1330      F1336   1.385       .  S
C1337      C1338   1.410       .  A
C1337      C1342   1.412       .  A
C1337      H1344   1.082       .  S
C1338      C1339   1.430       .  A
C1339      C1340   1.405       .  A
C1339      C1346   1.525       .  S
C1340      C1341   1.399       .  A
C1340      H1345   1.084       .  S
C1341      C1342   1.413       .  A
C1342      C1343   1.515       .  S
C1343      F1347   1.384       .  S
C1343      F1348   1.383       .  S
C1343      F1349   1.381       .  S
C1346      F1350   1.384       .  S
C1346      F1351   1.383       .  S
C1346      F1352   1.385       .  S
C1353      C1354   1.409       .  A
C1353      C1358   1.406       .  A
C1353      H1360   1.084       .  S
C1354      C1355   1.425       .  A
C1355      C1356   1.407       .  A
C1355      C1362   1.511       .  S
C1356      C1357   1.400       .  A
C1356      H1361   1.083       .  S
C1357      C1358   1.419       .  A
C1358      C1359   1.520       .  S
C1359      F1363   1.384       .  S
C1359      F1364   1.382       .  S
C1359      F1365   1.383       .  S
C1362      F1366   1.370       .  S
C1362      F1367   1.381       .  S
C1362      F1368   1.385       .  S
C1369      C1370   1.415       .  A
C1369      C1374   1.400       .  A
C1369      H1376   1.081       .  S
C1370      C1371   1.429       .  A
C1371      C1372   1.402       .  A
C1371      C1378   1.521       .  S
C1372      C1373   1.395       .  A
C1372      H1377   1.084       .  S
C1373      C1374   1.405       .  A
C1374      C1375   1.519       .  S
C1375      F1379   1.384       .  S
C1375      F1380   1.383       .  S
C1375      F1381   1.383       .  S
C1378      F1382   1.382       .  S
C1378      F1383   1.380       .  S
C1378      F1384   1.385       .  S
C1385      C1386   1.406       .  A
C1385      C1390   1.395       .  A
C1385      H1392   1.084       .  S
C1386      C1387   1.415       .  A
C1387      C1388   1.411       .  A
C1387      C1394   1.516       .  S
C1388      C1389   1.405       .  A
C1388      H1393   1.083       .  S
C1389      C1390   1.410       .  A
C1390      C1391   1.522       .  S
C1391      F1395   1.385       .  S
C1391      F1396   1.382       .  S
C1391      F1397   1.383       .  S
C1394      F1398   1.383       .  S
C1394      F1399   1.383       .  S
C1394      F1400   1.384       .  S
C1401      C1402   1.404       .  A
C1401      C1406   1.399       .  A
C1401      H1408   1.082       .  S
C1402      C1403   1.417       .  A
C1403      C1404   1.405       .  A
C1403      C1410   1.514       .  S
C1404      C1405   1.402       .  A
C1404      H1409   1.085       .  S
C1405      C1406   1.410       .  A
C1406      C1407   1.518       .  S
C1407      F1411   1.385       .  S
C1407      F1412   1.383       .  S
C1407      F1413   1.382       .  S
C1410      F1414   1.383       .  S
C1410      F1415   1.377       .  S
C1410      F1416   1.383       .  S
C1417      C1418   1.409       .  A
C1417      C1422   1.414       .  A
C1417      H1424   1.079       .  S
C1418      C1419   1.424       .  A
C1419      C1420   1.409       .  A
C1419      C1426   1.521       .  S
C1420      C1421   1.403       .  A
C1420      H1425   1.085       .  S
C1421      C1422   1.415       .  A
C1422      C1423   1.517       .  S
C1423      F1427   1.384       .  S
C1423      F1428   1.381       .  S
C1423      F1429   1.383       .  S
C1426      F1430   1.384       .  S
C1426      F1431   1.380       .  S
C1426      F1432   1.383       .  S
C1433      C1434   1.405       .  A
C1433      C1438   1.406       .  A
C1433      H1440   1.080       .  S
C1434      C1435   1.424       .  A
C1435      C1436   1.417       .  A
C1435      C1442   1.515       .  S
C1436      C1437   1.405       .  A
C1436      H1441   1.084       .  S
C1437      C1438   1.413       .  A
C1438      C1439   1.519       .  S
C1439      F1443   1.384       .  S
C1439      F1444   1.383       .  S
C1439      F1445   1.382       .  S
C1442      F1446   1.383       .  S
C1442      F1447   1.378       .  S
C1442      F1448   1.383       .  S
C1449      C1450   1.398       .  A
C1449      C1454   1.399       .  A
C1449      H1456   1.083       .  S
C1450      C1451   1.407       .  A
C1451      C1452   1.415       .  A
C1451      C1458   1.514       .  S
C1452      C1453   1.419       .  A
C1452      H1457   1.082       .  S
C1453      C1454   1.429       .  A
C1454      C1455   1.518       .  S
C1455      F1459   1.386       .  S
C1455      F1460   1.384       .  S
C1455      F1461   1.376       .  S
C1458      F1462   1.383       .  S
C1458      F1463   1.383       .  S
C1458      F1464   1.384       .  S
C1465      C1466   1.403       .  A
C1465      C1470   1.416       .  A
C1465      H1472   1.080       .  S
C1466      C1467   1.408       .  A
C1467      C1468   1.406       .  A
C1467      C1474   1.522       .  S
C1468      C1469   1.420       .  A
C1468      H1473   1.069       .  S
C1469      C1470   1.430       .  A
C1470      C1471   1.519       .  S
C1471      F1475   1.384       .  S
C1471      F1476   1.383       .  S
C1471      F1477   1.384       .  S
C1474      F1478   1.381       .  S
C1474      F1479   1.382       .  S
C1474      F1480   1.385       .  S
C1481      C1482   1.406       .  A
C1481      C1486   1.405       .  A
C1481      H1488   1.084       .  S
C1482      C1483   1.410       .  A
C1483      C1484   1.407       .  A
C1483      C1490   1.518       .  S
C1484      C1485   1.414       .  A
C1484      H1489   1.082       .  S
C1485      C1486   1.420       .  A
C1486      C1487   1.520       .  S
C1487      F1491   1.385       .  S
C1487      F1492   1.382       .  S
C1487      F1493   1.382       .  S
C1490      F1494   1.382       .  S
C1490      F1495   1.383       .  S
C1490      F1496   1.385       .  S
C1497      C1498   1.406       .  A
C1497      C1502   1.417       .  A
C1497      H1504   1.083       .  S
C1498      C1499   1.417       .  A
C1499      C1500   1.386       .  A
C1499      C1506   1.526       .  S
C1500      C1501   1.404       .  A
C1500      H1505   1.078       .  S
C1501      C1502   1.426       .  A
C1502      C1503   1.519       .  S
C1503      F1507   1.385       .  S
C1503      F1508   1.383       .  S
C1503      F1509   1.381       .  S
C1506      F1510   1.376       .  S
C1506      F1511   1.381       .  S
C1506      F1512   1.385       .  S
C1513      C1514   1.399       .  A
C1513      C1518   1.395       .  A
C1513      H1520   1.086       .  S
C1514      C1515   1.416       .  A
C1515      C1516   1.412       .  A
C1515      C1522   1.518       .  S
C1516      C1517   1.407       .  A
C1516      H1521   1.083       .  S
C1517      C1518   1.420       .  A
C1518      C1519   1.521       .  S
C1519      F1523   1.383       .  S
C1519      F1524   1.376       .  S
C1519      F1525   1.384       .  S
C1522      F1526   1.382       .  S
C1522      F1527   1.383       .  S
C1522      F1528   1.384       .  S
C1529      C1530   1.409       .  A
C1529      C1534   1.412       .  A
C1529      H1536   1.080       .  S
C1530      C1531   1.424       .  A
C1531      C1532   1.406       .  A
C1531      C1538   1.522       .  S
C1532      C1533   1.402       .  A
C1532      H1537   1.084       .  S
C1533      C1534   1.415       .  A
C1534      C1535   1.518       .  S
C1535      F1539   1.384       .  S
C1535      F1540   1.383       .  S
C1535      F1541   1.381       .  S
C1538      F1542   1.384       .  S
C1538      F1543   1.381       .  S
C1538      F1544   1.385       .  S
C1545      C1546   1.409       .  A
C1545      C1550   1.412       .  A
C1545      H1552   1.075       .  S
C1546      C1547   1.434       .  A
C1547      C1548   1.406       .  A
C1547      C1554   1.523       .  S
C1548      C1549   1.396       .  A
C1548      H1553   1.085       .  S
C1549      C1550   1.409       .  A
C1550      C1551   1.516       .  S
C1551      F1555   1.382       .  S
C1551      F1556   1.385       .  S
C1551      F1557   1.380       .  S
C1554      F1558   1.371       .  S
C1554      F1559   1.385       .  S
C1554      F1560   1.383       .  S
C1561      C1562   1.400       .  A
C1561      C1566   1.407       .  A
C1561      H1568   1.071       .  S
C1562      C1563   1.418       .  A
C1563      C1564   1.412       .  A
C1563      C1570   1.519       .  S
C1564      C1565   1.413       .  A
C1564      H1569   1.083       .  S
C1565      C1566   1.439       .  A
C1566      C1567   1.523       .  S
C1567      F1571   1.384       .  S
C1567      F1572   1.377       .  S
C1567      F1573   1.383       .  S
C1570      F1574   1.383       .  S
C1570      F1575   1.378       .  S
C1570      F1576   1.384       .  S
C1577      C1578   1.398       .  A
C1577      C1582   1.398       .  A
C1577      H1584   1.082       .  S
C1578      C1579   1.409       .  A
C1579      C1580   1.409       .  A
C1579      C1586   1.514       .  S
C1580      C1581   1.408       .  A
C1580      H1585   1.083       .  S
C1581      C1582   1.419       .  A
C1582      C1583   1.520       .  S
C1583      F1587   1.385       .  S
C1583      F1588   1.381       .  S
C1583      F1589   1.382       .  S
C1586      F1590   1.383       .  S
C1586      F1591   1.383       .  S
C1586      F1592   1.384       .  S
C1593      C1594   1.402       .  A
C1593      C1598   1.408       .  A
C1593      H1600   1.085       .  S
C1594      C1595   1.412       .  A
C1595      C1596   1.412       .  A
C1595      C1602   1.517       .  S
C1596      C1597   1.414       .  A
C1596      H1601   1.082       .  S
C1597      C1598   1.427       .  A
C1598      C1599   1.510       .  S
C1599      F1603   1.384       .  S
C1599      F1604   1.382       .  S
C1599      F1605   1.371       .  S
C1602      F1606   1.383       .  S
C1602      F1607   1.382       .  S
C1602      F1608   1.385       .  S
C1609      C1610   1.399       .  A
C1609      C1614   1.408       .  A
C1609      H1616   1.085       .  S
C1610      C1611   1.420       .  A
C1611      C1612   1.406       .  A
C1611      C1618   1.522       .  S
C1612      C1613   1.406       .  A
C1612      H1617   1.079       .  S
C1613      C1614   1.426       .  A
C1614      C1615   1.518       .  S
C1615      F1619   1.384       .  S
C1615      F1620   1.382       .  S
C1615      F1621   1.380       .  S
C1618      F1622   1.383       .  S
C1618      F1623   1.381       .  S
C1618      F1624   1.385       .  S
C1625      C1626   1.407       .  A
C1625      C1630   1.409       .  A
C1625      H1632   1.083       .  S
C1626      C1627   1.421       .  A
C1627      C1628   1.395       .  A
C1627      C1634   1.523       .  S
C1628      C1629   1.395       .  A
C1628      H1633   1.086       .  S
C1629      C1630   1.409       .  A
C1630      C1631   1.515       .  S
C1631      F1635   1.384       .  S
C1631      F1636   1.383       .  S
C1631      F1637   1.383       .  S
C1634      F1638   1.384       .  S
C1634      F1639   1.379       .  S
C1634      F1640   1.384       .  S
C1641      C1642   1.414       .  A
C1641      C1646   1.413       .  A
C1641      H1648   1.084       .  S
C1642      C1643   1.418       .  A
C1643      C1644   1.400       .  A
C1643      C1650   1.522       .  S
C1644      C1645   1.412       .  A
C1644      H1649   1.078       .  S
C1645      C1646   1.417       .  A
C1646      C1647   1.514       .  S
C1647      F1651   1.384       .  S
C1647      F1652   1.378       .  S
C1647      F1653   1.383       .  S
C1650      F1654   1.381       .  S
C1650      F1655   1.384       .  S
C1650      F1656   1.385       .  S
C1657      C1658   1.414       .  A
C1657      C1662   1.397       .  A
C1657      H1664   1.080       .  S
C1658      C1659   1.434       .  A
C1659      C1660   1.421       .  A
C1659      C1666   1.515       .  S
C1660      C1661   1.415       .  A
C1660      H1665   1.083       .  S
C1661      C1662   1.407       .  A
C1662      C1663   1.517       .  S
C1663      F1667   1.385       .  S
C1663      F1668   1.383       .  S
C1663      F1669   1.380       .  S
C1666      F1670   1.382       .  S
C1666      F1671   1.382       .  S
C1666      F1672   1.385       .  S
C1673      C1674   1.402       .  A
C1673      C1678   1.408       .  A
C1673      H1680   1.084       .  S
C1674      C1675   1.412       .  A
C1675      C1676   1.409       .  A
C1675      C1682   1.517       .  S
C1676      C1677   1.413       .  A
C1676      H1681   1.082       .  S
C1677      C1678   1.425       .  A
C1678      C1679   1.520       .  S
C1679      F1683   1.385       .  S
C1679      F1684   1.380       .  S
C1679      F1685   1.384       .  S
C1682      F1686   1.378       .  S
C1682      F1687   1.383       .  S
C1682      F1688   1.384       .  S
C1689      C1690   1.404       .  A
C1689      C1694   1.411       .  A
C1689      H1696   1.085       .  S
C1690      C1691   1.411       .  A
C1691      C1692   1.408       .  A
C1691      C1698   1.517       .  S
C1692      C1693   1.408       .  A
C1692      H1697   1.080       .  S
C1693      C1694   1.422       .  A
C1694      C1695   1.515       .  S
C1695      F1699   1.383       .  S
C1695      F1700   1.376       .  S
C1695      F1701   1.383       .  S
C1698      F1702   1.383       .  S
C1698      F1703   1.383       .  S
C1698      F1704   1.385       .  S
C1705      C1706   1.399       .  A
C1705      C1710   1.406       .  A
C1705      H1712   1.084       .  S
C1706      C1707   1.413       .  A
C1707      C1708   1.407       .  A
C1707      C1714   1.519       .  S
C1708      C1709   1.412       .  A
C1708      H1713   1.082       .  S
C1709      C1710   1.429       .  A
C1710      C1711   1.521       .  S
C1711      F1715   1.385       .  S
C1711      F1716   1.383       .  S
C1711      F1717   1.380       .  S
C1714      F1718   1.383       .  S
C1714      F1719   1.380       .  S
C1714      F1720   1.384       .  S
C1721      C1722   1.402       .  A
C1721      C1726   1.415       .  A
C1721      H1728   1.085       .  S
C1722      C1723   1.415       .  A
C1723      C1724   1.414       .  A
C1723      C1730   1.517       .  S
C1724      C1725   1.409       .  A
C1724      H1729   1.081       .  S
C1725      C1726   1.428       .  A
C1726      C1727   1.513       .  S
C1727      F1731   1.384       .  S
C1727      F1732   1.383       .  S
C1727      F1733   1.373       .  S
C1730      F1734   1.382       .  S
C1730      F1735   1.384       .  S
C1730      F1736   1.385       .  S
C1737      C1738   1.403   1_556  A
C1737      C1742   1.407       .  A
C1737      H1744   1.084       .  S
C1738      C1739   1.413       .  A
C1739      C1740   1.408   1_554  A
C1739      C1746   1.514       .  S
C1740      C1741   1.405       .  A
C1740      H1745   1.083       .  S
C1741      C1742   1.417       .  A
C1742      C1743   1.521       .  S
C1743      F1747   1.385       .  S
C1743      F1748   1.384       .  S
C1743      F1749   1.380       .  S
C1746      F1750   1.383       .  S
C1746      F1751   1.378       .  S
C1746      F1752   1.384       .  S
C1753      C1754   1.403       .  A
C1753      C1758   1.414   1_554  A
C1753      H1760   1.083       .  S
C1754      C1755   1.414   1_554  A
C1755      C1756   1.394       .  A
C1755      C1762   1.503       .  S
C1756      C1757   1.395       .  A
C1756      H1761   1.084       .  S
C1757      C1758   1.421       .  A
C1758      C1759   1.518       .  S
C1759      F1763   1.385   1_556  S
C1759      F1764   1.381       .  S
C1759      F1765   1.383       .  S
C1762      F1766   1.381       .  S
C1762      F1767   1.369       .  S
C1762      F1768   1.385       .  S
C1769      C1770   1.404       .  A
C1769      C1774   1.400       .  A
C1769      H1776   1.082       .  S
C1770      C1771   1.417       .  A
C1771      C1772   1.406       .  A
C1771      C1778   1.519       .  S
C1772      C1773   1.406       .  A
C1772      H1777   1.083       .  S
C1773      C1774   1.417       .  A
C1774      C1775   1.521       .  S
C1775      F1779   1.385       .  S
C1775      F1780   1.384       .  S
C1775      F1781   1.382       .  S
C1778      F1782   1.383       .  S
C1778      F1783   1.382       .  S
C1778      F1784   1.384       .  S
C1785      C1786   1.417       .  A
C1785      C1790   1.420       .  A
C1785      H1792   1.082       .  S
C1786      C1787   1.432       .  A
C1787      C1788   1.407       .  A
C1787      C1794   1.521       .  S
C1788      C1789   1.398       .  A
C1788      H1793   1.084       .  S
C1789      C1790   1.411       .  A
C1790      C1791   1.514       .  S
C1791      F1795   1.384       .  S
C1791      F1796   1.383       .  S
C1791      F1797   1.383       .  S
C1794      F1798   1.383       .  S
C1794      F1799   1.383       .  S
C1794      F1800   1.385       .  S
C1801      C1802   1.401       .  A
C1801      C1806   1.411       .  A
C1801      H1808   1.083       .  S
C1802      C1803   1.422       .  A
C1803      C1804   1.391       .  A
C1803      C1810   1.528       .  S
C1804      C1805   1.405       .  A
C1804      H1809   1.082       .  S
C1805      C1806   1.431       .  A
C1806      C1807   1.524       .  S
C1807      F1811   1.385       .  S
C1807      F1812   1.382       .  S
C1807      F1813   1.377       .  S
C1810      F1814   1.380       .  S
C1810      F1815   1.383       .  S
C1810      F1816   1.385       .  S
C1817      C1818   1.411       .  A
C1817      C1822   1.415   1_554  A
C1817      H1824   1.083       .  S
C1818      C1819   1.423   1_554  A
C1819      C1820   1.406       .  A
C1819      C1826   1.521       .  S
C1820      C1821   1.406       .  A
C1820      H1825   1.084       .  S
C1821      C1822   1.421       .  A
C1822      C1823   1.520       .  S
C1823      F1827   1.385   1_556  S
C1823      F1828   1.383       .  S
C1823      F1829   1.379       .  S
C1826      F1830   1.384   1_556  S
C1826      F1831   1.380       .  S
C1826      F1832   1.385       .  S
C1833      C1834   1.401       .  A
C1833      C1838   1.407       .  A
C1833      H1840   1.084       .  S
C1834      C1835   1.409       .  A
C1835      C1836   1.407       .  A
C1835      C1842   1.515       .  S
C1836      C1837   1.411       .  A
C1836      H1841   1.083       .  S
C1837      C1838   1.423       .  A
C1838      C1839   1.521       .  S
C1839      F1843   1.385       .  S
C1839      F1844   1.381       .  S
C1839      F1845   1.381       .  S
C1842      F1846   1.384       .  S
C1842      F1847   1.380       .  S
C1842      F1848   1.384       .  S
C1849      C1850   1.418       .  A
C1849      C1854   1.423       .  A
C1849      H1856   1.084       .  S
C1850      C1851   1.422       .  A
C1851      C1852   1.398       .  A
C1851      C1858   1.521       .  S
C1852      C1853   1.408       .  A
C1852      H1857   1.082       .  S
C1853      C1854   1.423       .  A
C1854      C1855   1.520       .  S
C1855      F1859   1.384       .  S
C1855      F1860   1.382       .  S
C1855      F1861   1.380       .  S
C1858      F1862   1.384       .  S
C1858      F1863   1.380       .  S
C1858      F1864   1.386       .  S
C1865      C1866   1.398       .  A
C1865      C1870   1.408       .  A
C1865      H1872   1.083       .  S
C1866      C1867   1.416       .  A
C1867      C1868   1.399       .  A
C1867      C1874   1.522       .  S
C1868      C1869   1.407       .  A
C1868      H1873   1.083       .  S
C1869      C1870   1.427       .  A
C1870      C1871   1.519       .  S
C1871      F1875   1.378       .  S
C1871      F1876   1.382       .  S
C1871      F1877   1.383       .  S
C1874      F1878   1.381       .  S
C1874      F1879   1.384       .  S
C1874      F1880   1.385       .  S
C1881      C1882   1.395       .  A
C1881      C1886   1.403       .  A
C1881      H1888   1.084       .  S
C1882      C1883   1.412       .  A
C1883      C1884   1.404       .  A
C1883      C1890   1.519       .  S
C1884      C1885   1.413       .  A
C1884      H1889   1.084       .  S
C1885      C1886   1.433       .  A
C1886      C1887   1.522       .  S
C1887      F1891   1.385       .  S
C1887      F1892   1.383       .  S
C1887      F1893   1.377       .  S
C1890      F1894   1.383       .  S
C1890      F1895   1.382       .  S
C1890      F1896   1.384       .  S
C1897      C1898   1.413       .  A
C1897      C1902   1.400       .  A
C1897      H1904   1.084       .  S
C1898      C1899   1.431       .  A
C1899      C1900   1.406       .  A
C1899      C1906   1.524       .  S
C1900      C1901   1.397       .  A
C1900      H1905   1.083       .  S
C1901      C1902   1.410       .  A
C1902      C1903   1.520       .  S
C1903      F1907   1.384       .  S
C1903      F1908   1.382       .  S
C1903      F1909   1.383       .  S
C1906      F1910   1.380       .  S
C1906      F1911   1.384       .  S
C1906      F1912   1.385       .  S
C1913      C1914   1.409       .  A
C1913      C1918   1.408       .  A
C1913      H1920   1.064       .  S
C1914      C1915   1.423       .  A
C1915      C1916   1.410       .  A
C1915      C1922   1.519       .  S
C1916      C1917   1.413       .  A
C1916      H1921   1.082       .  S
C1917      C1918   1.420       .  A
C1918      C1919   1.521       .  S
C1919      F1923   1.385       .  S
C1919      F1924   1.383       .  S
C1919      F1925   1.382       .  S
C1922      F1926   1.380       .  S
C1922      F1927   1.386       .  S
C1922      F1928   1.379       .  S
C1929      C1930   1.399       .  A
C1929      C1934   1.407       .  A
C1929      H1936   1.085       .  S
C1930      C1931   1.408       .  A
C1931      C1932   1.400       .  A
C1931      C1938   1.520       .  S
C1932      C1933   1.404       .  A
C1932      H1937   1.072       .  S
C1933      C1934   1.428       .  A
C1934      C1935   1.514       .  S
C1935      F1939   1.383       .  S
C1935      F1940   1.376       .  S
C1935      F1941   1.383       .  S
C1938      F1942   1.383       .  S
C1938      F1943   1.382       .  S
C1938      F1944   1.385       .  S
C1945      C1946   1.406       .  A
C1945      C1950   1.410       .  A
C1945      H1952   1.078       .  S
C1946      C1947   1.431       .  A
C1947      C1948   1.410       .  A
C1947      C1954   1.520       .  S
C1948      C1949   1.400       .  A
C1948      H1953   1.085       .  S
C1949      C1950   1.418       .  A
C1950      C1951   1.517       .  S
C1951      F1955   1.385       .  S
C1951      F1956   1.383       .  S
C1951      F1957   1.381       .  S
C1954      F1958   1.379       .  S
C1954      F1959   1.377       .  S
C1954      F1960   1.384       .  S
C1961      C1962   1.416       .  A
C1961      C1966   1.402       .  A
C1961      H1968   1.070       .  S
C1962      C1963   1.439       .  A
C1963      C1964   1.425       .  A
C1963      C1970   1.513       .  S
C1964      C1965   1.411       .  A
C1964      H1969   1.080       .  S
C1965      C1966   1.409       .  A
C1966      C1967   1.518       .  S
C1967      F1971   1.376       .  S
C1967      F1972   1.384       .  S
C1967      F1973   1.384       .  S
C1970      F1974   1.381       .  S
C1970      F1975   1.377       .  S
C1970      F1976   1.385       .  S
C1977      C1978   1.405       .  A
C1977      C1982   1.409       .  A
C1977      H1984   1.084       .  S
C1978      C1979   1.422       .  A
C1979      C1980   1.405       .  A
C1979      C1986   1.519       .  S
C1980      C1981   1.407       .  A
C1980      H1985   1.085       .  S
C1981      C1982   1.424       .  A
C1982      C1983   1.511       .  S
C1983      F1987   1.384       .  S
C1983      F1988   1.382       .  S
C1983      F1989   1.374       .  S
C1986      F1990   1.383       .  S
C1986      F1991   1.383       .  S
C1986      F1992   1.384       .  S
C1993      C1994   1.403       .  A
C1993      C1998   1.397       .  A
C1993      H2000   1.085       .  S
C1994      C1995   1.420       .  A
C1995      C1996   1.412       .  A
C1995      C2002   1.516   1_565  S
C1996      C1997   1.404       .  A
C1996      H2001   1.083       .  S
C1997      C1998   1.416       .  A
C1998      C1999   1.520       .  S
C1999      F2003   1.384       .  S
C1999      F2004   1.382       .  S
C1999      F2005   1.383       .  S
C2002      F2006   1.382       .  S
C2002      F2007   1.383       .  S
C2002      F2008   1.384       .  S
C2009      C2010   1.393       .  A
C2009      C2014   1.397       .  A
C2009      H2016   1.086       .  S
C2010      C2011   1.416       .  A
C2011      C2012   1.414       .  A
C2011      C2018   1.515       .  S
C2012      C2013   1.406       .  A
C2012      H2017   1.083       .  S
C2013      C2014   1.425       .  A
C2014      C2015   1.516       .  S
C2015      F2019   1.383       .  S
C2015      F2020   1.372       .  S
C2015      F2021   1.383       .  S
C2018      F2022   1.383       .  S
C2018      F2023   1.382       .  S
C2018      F2024   1.385       .  S
C2025      C2026   1.412       .  A
C2025      C2030   1.403       .  A
C2025      H2032   1.082       .  S
C2026      C2027   1.419       .  A
C2027      C2028   1.406       .  A
C2027      C2034   1.520       .  S
C2028      C2029   1.407       .  A
C2028      H2033   1.085       .  S
C2029      C2030   1.410       .  A
C2030      C2031   1.516       .  S
C2031      F2035   1.385       .  S
C2031      F2036   1.379       .  S
C2031      F2037   1.384       .  S
C2034      F2038   1.383       .  S
C2034      F2039   1.382       .  S
C2034      F2040   1.385       .  S
C2041      C2042   1.412       .  A
C2041      C2046   1.412       .  A
C2041      H2048   1.082       .  S
C2042      C2043   1.432       .  A
C2043      C2044   1.406       .  A
C2043      C2050   1.518       .  S
C2044      C2045   1.397       .  A
C2044      H2049   1.083       .  S
C2045      C2046   1.418       .  A
C2046      C2047   1.520       .  S
C2047      F2051   1.385       .  S
C2047      F2052   1.381       .  S
C2047      F2053   1.383       .  S
C2050      F2054   1.379       .  S
C2050      F2055   1.373       .  S
C2050      F2056   1.385       .  S
C2057      C2058   1.405       .  A
C2057      C2062   1.394       .  A
C2057      H2064   1.082       .  S
C2058      C2059   1.422       .  A
C2059      C2060   1.419       .  A
C2059      C2066   1.516       .  S
C2060      C2061   1.407       .  A
C2060      H2065   1.083       .  S
C2061      C2062   1.417       .  A
C2062      C2063   1.523       .  S
C2063      F2067   1.384       .  S
C2063      F2068   1.383       .  S
C2063      F2069   1.378       .  S
C2066      F2070   1.383       .  S
C2066      F2071   1.384       .  S
C2066      F2072   1.384       .  S
C2073      C2074   1.412       .  A
C2073      C2078   1.419       .  A
C2073      H2080   1.083       .  S
C2074      C2075   1.410       .  A
C2075      C2076   1.396       .  A
C2075      C2082   1.517       .  S
C2076      C2077   1.415       .  A
C2076      H2081   1.079       .  S
C2077      C2078   1.436       .  A
C2078      C2079   1.516       .  S
C2079      F2083   1.385       .  S
C2079      F2084   1.381       .  S
C2079      F2085   1.382       .  S
C2082      F2086   1.381       .  S
C2082      F2087   1.380       .  S
C2082      F2088   1.387       .  S
C2089      C2090   1.414       .  A
C2089      C2094   1.413       .  A
C2089      H2096   1.077       .  S
C2090      C2091   1.429       .  A
C2091      C2092   1.409       .  A
C2091      C2098   1.517       .  S
C2092      C2093   1.400       .  A
C2092      H2097   1.085       .  S
C2093      C2094   1.417       .  A
C2094      C2095   1.519       .  S
C2095      F2099   1.385       .  S
C2095      F2100   1.381       .  S
C2095      F2101   1.381       .  S
C2098      F2102   1.384       .  S
C2098      F2103   1.376       .  S
C2098      F2104   1.383       .  S
C2105      C2106   1.399       .  A
C2105      C2110   1.406       .  A
C2105      H2112   1.083       .  S
C2106      C2107   1.416       .  A
C2107      C2108   1.406       .  A
C2107      C2114   1.521       .  S
C2108      C2109   1.409       .  A
C2108      H2113   1.076       .  S
C2109      C2110   1.423       .  A
C2110      C2111   1.514       .  S
C2111      F2115   1.385       .  S
C2111      F2116   1.377       .  S
C2111      F2117   1.376       .  S
C2114      F2118   1.380       .  S
C2114      F2119   1.383       .  S
C2114      F2120   1.385       .  S
C2121      C2122   1.398       .  A
C2121      C2126   1.406       .  A
C2121      H2128   1.084       .  S
C2122      C2123   1.410       .  A
C2123      C2124   1.398       .  A
C2123      C2130   1.522       .  S
C2124      C2125   1.414       .  A
C2124      H2129   1.081   1_565  S
C2125      C2126   1.429       .  A
C2126      C2127   1.520       .  S
C2127      F2131   1.385       .  S
C2127      F2132   1.384       .  S
C2127      F2133   1.380       .  S
C2130      F2134   1.383       .  S
C2130      F2135   1.380       .  S
C2130      F2136   1.390       .  S
C2137      C2138   1.416       .  A
C2137      C2142   1.402       .  A
C2137      H2144   1.082   1_565  S
C2138      C2139   1.425       .  A
C2139      C2140   1.404       .  A
C2139      C2146   1.518       .  S
C2140      C2141   1.399       .  A
C2140      H2145   1.084       .  S
C2141      C2142   1.405       .  A
C2142      C2143   1.517       .  S
C2143      F2147   1.385       .  S
C2143      F2148   1.381       .  S
C2143      F2149   1.383       .  S
C2146      F2150   1.380       .  S
C2146      F2151   1.383       .  S
C2146      F2152   1.385       .  S
C2153      C2154   1.407       .  A
C2153      C2158   1.409       .  A
C2153      H2160   1.082       .  S
C2154      C2155   1.434       .  A
C2155      C2156   1.416       .  A
C2155      C2162   1.523       .  S
C2156      C2157   1.413       .  A
C2156      H2161   1.071       .  S
C2157      C2158   1.439       .  A
C2158      C2159   1.520       .  S
C2159      F2163   1.360       .  S
C2159      F2164   1.384       .  S
C2159      F2165   1.381       .  S
C2162      F2166   1.383       .  S
C2162      F2167   1.380       .  S
C2162      F2168   1.384       .  S
C2169      C2170   1.417       .  A
C2169      C2174   1.420       .  A
C2169      H2176   1.083       .  S
C2170      C2171   1.424       .  A
C2171      C2172   1.398       .  A
C2171      C2178   1.522       .  S
C2172      C2173   1.405       .  A
C2172      H2177   1.080       .  S
C2173      C2174   1.418       .  A
C2174      C2175   1.518       .  S
C2175      F2179   1.384       .  S
C2175      F2180   1.383       .  S
C2175      F2181   1.380       .  S
C2178      F2182   1.383       .  S
C2178      F2183   1.381       .  S
C2178      F2184   1.386       .  S
C2185      C2186   1.409       .  A
C2185      C2190   1.415       .  A
C2185      H2192   1.083       .  S
C2186      C2187   1.432       .  A
C2187      C2188   1.395       .  A
C2187      C2194   1.516       .  S
C2188      C2189   1.389       .  A
C2188      H2193   1.084       .  S
C2189      C2190   1.414       .  A
C2190      C2191   1.514       .  S
C2191      F2195   1.384       .  S
C2191      F2196   1.382       .  S
C2191      F2197   1.383       .  S
C2194      F2198   1.380       .  S
C2194      F2199   1.381       .  S
C2194      F2200   1.385       .  S
C2201      C2202   1.404       .  A
C2201      C2206   1.410       .  A
C2201      H2208   1.083       .  S
C2202      C2203   1.421       .  A
C2203      C2204   1.393       .  A
C2203      C2210   1.518       .  S
C2204      C2205   1.394       .  A
C2204      H2209   1.085       .  S
C2205      C2206   1.414       .  A
C2206      C2207   1.515       .  S
C2207      F2211   1.384       .  S
C2207      F2212   1.382       .  S
C2207      F2213   1.383       .  S
C2210      F2214   1.384   1_556  S
C2210      F2215   1.375   1_556  S
C2210      F2216   1.383       .  S
C2217      C2218   1.396       .  A
C2217      C2222   1.403       .  A
C2217      H2224   1.085       .  S
C2218      C2219   1.418       .  A
C2219      C2220   1.410       .  A
C2219      C2226   1.513       .  S
C2220      C2221   1.402       .  A
C2220      H2225   1.083       .  S
C2221      C2222   1.427       .  A
C2222      C2223   1.522       .  S
C2223      F2227   1.383       .  S
C2223      F2228   1.379       .  S
C2223      F2229   1.383       .  S
C2226      F2230   1.381       .  S
C2226      F2231   1.383       .  S
C2226      F2232   1.384       .  S
C2233      C2234   1.410       .  A
C2233      C2238   1.406       .  A
C2233      H2240   1.084       .  S
C2234      C2235   1.419       .  A
C2235      C2236   1.405       .  A
C2235      C2242   1.509       .  S
C2236      C2237   1.402       .  A
C2236      H2241   1.083       .  S
C2237      C2238   1.419       .  A
C2238      C2239   1.519       .  S
C2239      F2243   1.384       .  S
C2239      F2244   1.383       .  S
C2239      F2245   1.383       .  S
C2242      F2246   1.383       .  S
C2242      F2247   1.381       .  S
C2242      F2248   1.381       .  S
C2249      C2250   1.402       .  A
C2249      C2254   1.404       .  A
C2249      H2256   1.076       .  S
C2250      C2251   1.428       .  A
C2251      C2252   1.406       .  A
C2251      C2258   1.519       .  S
C2252      C2253   1.397       .  A
C2252      H2257   1.085       .  S
C2253      C2254   1.415       .  A
C2254      C2255   1.516       .  S
C2255      F2259   1.384       .  S
C2255      F2260   1.383       .  S
C2255      F2261   1.371       .  S
C2258      F2262   1.384       .  S
C2258      F2263   1.376       .  S
C2258      F2264   1.383       .  S
C2265      C2266   1.407       .  A
C2265      C2270   1.413       .  A
C2265      H2272   1.084       .  S
C2266      C2267   1.425       .  A
C2267      C2268   1.403       .  A
C2267      C2274   1.508       .  S
C2268      C2269   1.397       .  A
C2268      H2273   1.083       .  S
C2269      C2270   1.425       .  A
C2270      C2271   1.520       .  S
C2271      F2275   1.384       .  S
C2271      F2276   1.382       .  S
C2271      F2277   1.383       .  S
C2274      F2278   1.376       .  S
C2274      F2279   1.382       .  S
C2274      F2280   1.386       .  S
C2281      C2282   1.407       .  A
C2281      C2286   1.407       .  A
C2281      H2288   1.085       .  S
C2282      C2283   1.422       .  A
C2283      C2284   1.409       .  A
C2283      C2290   1.522       .  S
C2284      C2285   1.409       .  A
C2284      H2289   1.078       .  S
C2285      C2286   1.422       .  A
C2286      C2287   1.519       .  S
C2287      F2291   1.383       .  S
C2287      F2292   1.378       .  S
C2287      F2293   1.384       .  S
C2290      F2294   1.382       .  S
C2290      F2295   1.381       .  S
C2290      F2296   1.385       .  S
C2297      C2298   1.407       .  A
C2297      C2302   1.393       .  A
C2297      H2304   1.081       .  S
C2298      C2299   1.416       .  A
C2299      C2300   1.417       .  A
C2299      C2306   1.513       .  S
C2300      C2301   1.408       .  A
C2300      H2305   1.083       .  S
C2301      C2302   1.413       .  A
C2302      C2303   1.524       .  S
C2303      F2307   1.385       .  S
C2303      F2308   1.381       .  S
C2303      F2309   1.379       .  S
C2306      F2310   1.383   1_655  S
C2306      F2311   1.380   1_655  S
C2306      F2312   1.384       .  S
C2313      C2314   1.394       .  A
C2313      C2318   1.396       .  A
C2313      H2320   1.083       .  S
C2314      C2315   1.410       .  A
C2315      C2316   1.404       .  A
C2315      C2322   1.515       .  S
C2316      C2317   1.407       .  A
C2316      H2321   1.083       .  S
C2317      C2318   1.420       .  A
C2318      C2319   1.515       .  S
C2319      F2323   1.385       .  S
C2319      F2324   1.377       .  S
C2319      F2325   1.383       .  S
C2322      F2326   1.378   1_655  S
C2322      F2327   1.382       .  S
C2322      F2328   1.385       .  S
C2329      C2330   1.414       .  A
C2329      C2334   1.406       .  A
C2329      H2336   1.084       .  S
C2330      C2331   1.432       .  A
C2331      C2332   1.403       .  A
C2331      C2338   1.522       .  S
C2332      C2333   1.396       .  A
C2332      H2337   1.084       .  S
C2333      C2334   1.412       .  A
C2334      C2335   1.518       .  S
C2335      F2339   1.383       .  S
C2335      F2340   1.382       .  S
C2335      F2341   1.383       .  S
C2338      F2342   1.374       .  S
C2338      F2343   1.383       .  S
C2338      F2344   1.385       .  S
C2345      C2346   1.399       .  A
C2345      C2350   1.396       .  A
C2345      H2352   1.086       .  S
C2346      C2347   1.421       .  A
C2347      C2348   1.407       .  A
C2347      C2354   1.515       .  S
C2348      C2349   1.402       .  A
C2348      H2353   1.085       .  S
C2349      C2350   1.419       .  A
C2350      C2351   1.521       .  S
C2351      F2355   1.384       .  S
C2351      F2356   1.377       .  S
C2351      F2357   1.383       .  S
C2354      F2358   1.383       .  S
C2354      F2359   1.375       .  S
C2354      F2360   1.384       .  S
C2361      C2362   1.401       .  A
C2361      C2366   1.386       .  A
C2361      H2368   1.083       .  S
C2362      C2363   1.423       .  A
C2363      C2364   1.425       .  A
C2363      C2370   1.518       .  S
C2364      C2365   1.411       .  A
C2364      H2369   1.083       .  S
C2365      C2366   1.426       .  A
C2366      C2367   1.524       .  S
C2367      F2371   1.386       .  S
C2367      F2372   1.373       .  S
C2367      F2373   1.383       .  S
C2370      F2374   1.380       .  S
C2370      F2375   1.381       .  S
C2370      F2376   1.385       .  S
C2377      C2378   1.406       .  A
C2377      C2382   1.414       .  A
C2377      H2384   1.084       .  S
C2378      C2379   1.419       .  A
C2379      C2380   1.397       .  A
C2379      C2386   1.501       .  S
C2380      C2381   1.396       .  A
C2380      H2385   1.082       .  S
C2381      C2382   1.424       .  A
C2382      C2383   1.518       .  S
C2383      F2387   1.384       .  S
C2383      F2388   1.382       .  S
C2383      F2389   1.383       .  S
C2386      F2390   1.378       .  S
C2386      F2391   1.379       .  S
C2386      F2392   1.385       .  S
C2393      C2394   1.410       .  A
C2393      C2398   1.405       .  A
C2393      H2400   1.082       .  S
C2394      C2395   1.428       .  A
C2395      C2396   1.411       .  A
C2395      C2402   1.519       .  S
C2396      C2397   1.404       .  A
C2396      H2401   1.083       .  S
C2397      C2398   1.416       .  A
C2398      C2399   1.523       .  S
C2399      F2403   1.384       .  S
C2399      F2404   1.375       .  S
C2399      F2405   1.382       .  S
C2402      F2406   1.383       .  S
C2402      F2407   1.380       .  S
C2402      F2408   1.385       .  S
C2409      C2410   1.404       .  A
C2409      C2414   1.407       .  A
C2409      H2416   1.082       .  S
C2410      C2411   1.434       .  A
C2411      C2412   1.406       .  A
C2411      C2418   1.522       .  S
C2412      C2413   1.395       .  A
C2412      H2417   1.084       .  S
C2413      C2414   1.422       .  A
C2414      C2415   1.519       .  S
C2415      F2419   1.385       .  S
C2415      F2420   1.382       .  S
C2415      F2421   1.378       .  S
C2418      F2422   1.385       .  S
C2418      F2423   1.379       .  S
C2418      F2424   1.382       .  S
C2425      C2426   1.404       .  A
C2425      C2430   1.407       .  A
C2425      H2432   1.080       .  S
C2426      C2427   1.424       .  A
C2427      C2428   1.402       .  A
C2427      C2434   1.517       .  S
C2428      C2429   1.401       .  A
C2428      H2433   1.085       .  S
C2429      C2430   1.422       .  A
C2430      C2431   1.510       .  S
C2431      F2435   1.385       .  S
C2431      F2436   1.368       .  S
C2431      F2437   1.383       .  S
C2434      F2438   1.383       .  S
C2434      F2439   1.383       .  S
C2434      F2440   1.384       .  S
C2441      C2442   1.392       .  A
C2441      C2446   1.396       .  A
C2441      H2448   1.086       .  S
C2442      C2443   1.413       .  A
C2443      C2444   1.412       .  A
C2443      C2450   1.514       .  S
C2444      C2445   1.407       .  A
C2444      H2449   1.083       .  S
C2445      C2446   1.428       .  A
C2446      C2447   1.519       .  S
C2447      F2451   1.383       .  S
C2447      F2452   1.370       .  S
C2447      F2453   1.385       .  S
C2450      F2454   1.382       .  S
C2450      F2455   1.383       .  S
C2450      F2456   1.384       .  S
C2457      C2458   1.402       .  A
C2457      C2462   1.413       .  A
C2457      H2464   1.084       .  S
C2458      C2459   1.411       .  A
C2459      C2460   1.393       .  A
C2459      C2466   1.505       .  S
C2460      C2461   1.400       .  A
C2460      H2465   1.080       .  S
C2461      C2462   1.426       .  A
C2462      C2463   1.517       .  S
C2463      F2467   1.384       .  S
C2463      F2468   1.382       .  S
C2463      F2469   1.383       .  S
C2466      F2470   1.365       .  S
C2466      F2471   1.380       .  S
C2466      F2472   1.385       .  S
C2473      C2474   1.407       .  A
C2473      C2478   1.417       .  A
C2473      H2480   1.080       .  S
C2474      C2475   1.430       .  A
C2475      C2476   1.408       .  A
C2475      C2482   1.515       .  S
C2476      C2477   1.394       .  A
C2476      H2481   1.084       .  S
C2477      C2478   1.417       .  A
C2478      C2479   1.512       .  S
C2479      F2483   1.384       .  S
C2479      F2484   1.379       .  S
C2479      F2485   1.384       .  S
C2482      F2486   1.378       .  S
C2482      F2487   1.376       .  S
C2482      F2488   1.385       .  S
C2489      C2490   1.407       .  A
C2489      C2494   1.415       .  A
C2489      H2496   1.078       .  S
C2490      C2491   1.434       .  A
C2491      C2492   1.401       .  A
C2491      C2498   1.513       .  S
C2492      C2493   1.390       .  A
C2492      H2497   1.086       .  S
C2493      C2494   1.419       .  A
C2494      C2495   1.516       .  S
C2495      F2499   1.384       .  S
C2495      F2500   1.381       .  S
C2495      F2501   1.383       .  S
C2498      F2502   1.384       .  S
C2498      F2503   1.361       .  S
C2498      F2504   1.384       .  S
C2505      C2506   1.408       .  A
C2505      C2510   1.416       .  A
C2505      H2512   1.080       .  S
C2506      C2507   1.429       .  A
C2507      C2508   1.404       .  A
C2507      C2514   1.510       .  S
C2508      C2509   1.393       .  A
C2508      H2513   1.085       .  S
C2509      C2510   1.417       .  A
C2510      C2511   1.515       .  S
C2511      F2515   1.384       .  S
C2511      F2516   1.383       .  S
C2511      F2517   1.383       .  S
C2514      F2518   1.385       .  S
C2514      F2519   1.367       .  S
C2514      F2520   1.383       .  S
C2521      C2522   1.398       .  A
C2521      C2526   1.404       .  A
C2521      H2528   1.085       .  S
C2522      C2523   1.419       .  A
C2523      C2524   1.405       .  A
C2523      C2530   1.516       .  S
C2524      C2525   1.401       .  A
C2524      H2529   1.081       .  S
C2525      C2526   1.425       .  A
C2526      C2527   1.519       .  S
C2527      F2531   1.383       .  S
C2527      F2532   1.383       .  S
C2527      F2533   1.377       .  S
C2530      F2534   1.381       .  S
C2530      F2535   1.381       .  S
C2530      F2536   1.385       .  S
C2537      C2538   1.406       .  A
C2537      C2542   1.407       .  A
C2537      H2544   1.083       .  S
C2538      C2539   1.418       .  A
C2539      C2540   1.408       .  A
C2539      C2546   1.519       .  S
C2540      C2541   1.405       .  A
C2540      H2545   1.079       .  S
C2541      C2542   1.422       .  A
C2542      C2543   1.521       .  S
C2543      F2547   1.385       .  S
C2543      F2548   1.380       .  S
C2543      F2549   1.383       .  S
C2546      F2550   1.380       .  S
C2546      F2551   1.381       .  S
C2546      F2552   1.378       .  S
C2553      C2554   1.396       .  A
C2553      C2558   1.401       .  A
C2553      H2560   1.083       .  S
C2554      C2555   1.412       .  A
C2555      C2556   1.401       .  A
C2555      C2562   1.520       .  S
C2556      C2557   1.409       .  A
C2556      H2561   1.082       .  S
C2557      C2558   1.428       .  A
C2558      C2559   1.521   1_556  S
C2559      F2563   1.385       .  S
C2559      F2564   1.380       .  S
C2559      F2565   1.382       .  S
C2562      F2566   1.381       .  S
C2562      F2567   1.383       .  S
C2562      F2568   1.384       .  S
C2569      C2570   1.400       .  A
C2569      C2574   1.410       .  A
C2569      H2576   1.083       .  S
C2570      C2571   1.417       .  A
C2571      C2572   1.400       .  A
C2571      C2578   1.523       .  S
C2572      C2573   1.406       .  A
C2572      H2577   1.083       .  S
C2573      C2574   1.426       .  A
C2574      C2575   1.518       .  S
C2575      F2579   1.385       .  S
C2575      F2580   1.382       .  S
C2575      F2581   1.381       .  S
C2578      F2582   1.381       .  S
C2578      F2583   1.383       .  S
C2578      F2584   1.385       .  S
C2585      C2586   1.394       .  A
C2585      C2590   1.403       .  A
C2585      H2592   1.084       .  S
C2586      C2587   1.407       .  A
C2587      C2588   1.405       .  A
C2587      C2594   1.518       .  S
C2588      C2589   1.414       .  A
C2588      H2593   1.082   1_556  S
C2589      C2590   1.434       .  A
C2590      C2591   1.524       .  S
C2591      F2595   1.385       .  S
C2591      F2596   1.380       .  S
C2591      F2597   1.383       .  S
C2594      F2598   1.383       .  S
C2594      F2599   1.382       .  S
C2594      F2600   1.384       .  S
C2601      C2602   1.399       .  A
C2601      C2606   1.412       .  A
C2601      H2608   1.083       .  S
C2602      C2603   1.409       .  A
C2603      C2604   1.397       .  A
C2603      C2610   1.523       .  S
C2604      C2605   1.413       .  A
C2604      H2609   1.081       .  S
C2605      C2606   1.427       .  A
C2606      C2607   1.517       .  S
C2607      F2611   1.385       .  S
C2607      F2612   1.383       .  S
C2607      F2613   1.383       .  S
C2610      F2614   1.382       .  S
C2610      F2615   1.382       .  S
C2610      F2616   1.385       .  S
C2617      C2618   1.409       .  A
C2617      C2622   1.404       .  A
C2617      H2624   1.083       .  S
C2618      C2619   1.420       .  A
C2619      C2620   1.398       .  A
C2619      C2626   1.523       .  S
C2620      C2621   1.403       .  A
C2620      H2625   1.084       .  S
C2621      C2622   1.411       .  A
C2622      C2623   1.518       .  S
C2623      F2627   1.385       .  S
C2623      F2628   1.382   1_556  S
C2623      F2629   1.384       .  S
C2626      F2630   1.381       .  S
C2626      F2631   1.381       .  S
C2626      F2632   1.384       .  S
C2633      C2634   1.398       .  A
C2633      C2638   1.405       .  A
C2633      H2640   1.085       .  S
C2634      C2635   1.415       .  A
C2635      C2636   1.411       .  A
C2635      C2642   1.517       .  S
C2636      C2637   1.406       .  A
C2636      H2641   1.082       .  S
C2637      C2638   1.425       .  A
C2638      C2639   1.521       .  S
C2639      F2643   1.383       .  S
C2639      F2644   1.380       .  S
C2639      F2645   1.383       .  S
C2642      F2646   1.382       .  S
C2642      F2647   1.383       .  S
C2642      F2648   1.385       .  S
C2649      C2650   1.404       .  A
C2649      C2654   1.402       .  A
C2649      H2656   1.084       .  S
C2650      C2651   1.413       .  A
C2651      C2652   1.409       .  A
C2651      C2658   1.517       .  S
C2652      C2653   1.409       .  A
C2652      H2657   1.083       .  S
C2653      C2654   1.420       .  A
C2654      C2655   1.522       .  S
C2655      F2659   1.385       .  S
C2655      F2660   1.383       .  S
C2655      F2661   1.384       .  S
C2658      F2662   1.382       .  S
C2658      F2663   1.383       .  S
C2658      F2664   1.385       .  S
C2665      C2666   1.402       .  A
C2665      C2670   1.406       .  A
C2665      H2672   1.081       .  S
C2666      C2667   1.422       .  A
C2667      C2668   1.416       .  A
C2667      C2674   1.519       .  S
C2668      C2669   1.405       .  A
C2668      H2673   1.083       .  S
C2669      C2670   1.418       .  A
C2670      C2671   1.518       .  S
C2671      F2675   1.384       .  S
C2671      F2676   1.378       .  S
C2671      F2677   1.382       .  S
C2674      F2678   1.384       .  S
C2674      F2679   1.382       .  S
C2674      F2680   1.385       .  S
C2681      C2682   1.403       .  A
C2681      C2686   1.398       .  A
C2681      H2688   1.085       .  S
C2682      C2683   1.433       .  A
C2683      C2684   1.413       .  A
C2683      C2690   1.522       .  S
C2684      C2685   1.398       .  A
C2684      H2689   1.083       .  S
C2685      C2686   1.421       .  A
C2686      C2687   1.522       .  S
C2687      F2691   1.383       .  S
C2687      F2692   1.379       .  S
C2687      F2693   1.383       .  S
C2690      F2694   1.384       .  S
C2690      F2695   1.383       .  S
C2690      F2696   1.385       .  S
C2697      C2698   1.408       .  A
C2697      C2702   1.407       .  A
C2697      H2704   1.083       .  S
C2698      C2699   1.417       .  A
C2699      C2700   1.398       .  A
C2699      C2706   1.524       .  S
C2700      C2701   1.408       .  A
C2700      H2705   1.084       .  S
C2701      C2702   1.415       .  A
C2702      C2703   1.518       .  S
C2703      F2707   1.385       .  S
C2703      F2708   1.384       .  S
C2703      F2709   1.382       .  S
C2706      F2710   1.383       .  S
C2706      F2711   1.382       .  S
C2706      F2712   1.385       .  S
C2713      C2714   1.405       .  A
C2713      C2718   1.396       .  A
C2713      H2720   1.085       .  S
C2714      C2715   1.423       .  A
C2715      C2716   1.409       .  A
C2715      C2722   1.514       .  S
C2716      C2717   1.400       .  A
C2716      H2721   1.083       .  S
C2717      C2718   1.415       .  A
C2718      C2719   1.521       .  S
C2719      F2723   1.384       .  S
C2719      F2724   1.383       .  S
C2719      F2725   1.383       .  S
C2722      F2726   1.383       .  S
C2722      F2727   1.381       .  S
C2722      F2728   1.385       .  S
C2729      C2730   1.398       .  A
C2729      C2734   1.404       .  A
C2729      H2736   1.084       .  S
C2730      C2731   1.412       .  A
C2731      C2732   1.413       .  A
C2731      C2738   1.514       .  S
C2732      C2733   1.410       .  A
C2732      H2737   1.083       .  S
C2733      C2734   1.423       .  A
C2734      C2735   1.516       .  S
C2735      F2739   1.385       .  S
C2735      F2740   1.381       .  S
C2735      F2741   1.378       .  S
C2738      F2742   1.383       .  S
C2738      F2743   1.383       .  S
C2738      F2744   1.385       .  S
C2745      C2746   1.403       .  A
C2745      C2750   1.399       .  A
C2745      H2752   1.083       .  S
C2746      C2747   1.433       .  A
C2747      C2748   1.399       .  A
C2747      C2754   1.525       .  S
C2748      C2749   1.391       .  A
C2748      H2753   1.084       .  S
C2749      C2750   1.414       .  A
C2750      C2751   1.518       .  S
C2751      F2755   1.383       .  S
C2751      F2756   1.381       .  S
C2751      F2757   1.383       .  S
C2754      F2758   1.370       .  S
C2754      F2759   1.370       .  S
C2754      F2760   1.386       .  S
C2761      C2762   1.405       .  A
C2761      C2766   1.409       .  A
C2761      H2768   1.079       .  S
C2762      C2763   1.427       .  A
C2763      C2764   1.411       .  A
C2763      C2770   1.520       .  S
C2764      C2765   1.401       .  A
C2764      H2769   1.085       .  S
C2765      C2766   1.420       .  A
C2766      C2767   1.522       .  S
C2767      F2771   1.384       .  S
C2767      F2772   1.383       .  S
C2767      F2773   1.380       .  S
C2770      F2774   1.382       .  S
C2770      F2775   1.379       .  S
C2770      F2776   1.383       .  S
C2777      C2778   1.407       .  A
C2777      C2782   1.408       .  A
C2777      H2784   1.073       .  S
C2778      C2779   1.428       .  A
C2779      C2780   1.400       .  A
C2779      C2786   1.511       .  S
C2780      C2781   1.391       .  A
C2780      H2785   1.086       .  S
C2781      C2782   1.411       .  A
C2782      C2783   1.516       .  S
C2783      F2787   1.385       .  S
C2783      F2788   1.383       .  S
C2783      F2789   1.382       .  S
C2786      F2790   1.384       .  S
C2786      F2791   1.363       .  S
C2786      F2792   1.383       .  S
C2793      C2794   1.396       .  A
C2793      C2798   1.398       .  A
C2793      H2800   1.083       .  S
C2794      C2795   1.411       .  A
C2795      C2796   1.412       .  A
C2795      C2802   1.514       .  S
C2796      C2797   1.410       .  A
C2796      H2801   1.083       .  S
C2797      C2798   1.423       .  A
C2798      C2799   1.516       .  S
C2799      F2803   1.385       .  S
C2799      F2804   1.382       .  S
C2799      F2805   1.381   1_565  S
C2802      F2806   1.383       .  S
C2802      F2807   1.383       .  S
C2802      F2808   1.384       .  S
C2809      C2810   1.406       .  A
C2809      C2814   1.410       .  A
C2809      H2816   1.083       .  S
C2810      C2811   1.422       .  A
C2811      C2812   1.397       .  A
C2811      C2818   1.520       .  S
C2812      C2813   1.396       .  A
C2812      H2817   1.086       .  S
C2813      C2814   1.416       .  A
C2814      C2815   1.519       .  S
C2815      F2819   1.384       .  S
C2815      F2820   1.382       .  S
C2815      F2821   1.384       .  S
C2818      F2822   1.383       .  S
C2818      F2823   1.376       .  S
C2818      F2824   1.384       .  S
C2825      C2826   1.401       .  A
C2825      C2830   1.408       .  A
C2825      H2832   1.083       .  S
C2826      C2827   1.418       .  A
C2827      C2828   1.405       .  A
C2827      C2834   1.513       .  S
C2828      C2829   1.398       .  A
C2828      H2833   1.083       .  S
C2829      C2830   1.424       .  A
C2830      C2831   1.528       .  S
C2831      F2835   1.385       .  S
C2831      F2836   1.374       .  S
C2831      F2837   1.376       .  S
C2834      F2838   1.383       .  S
C2834      F2839   1.381       .  S
C2834      F2840   1.385       .  S
C2841      C2842   1.400       .  A
C2841      C2846   1.405       .  A
C2841      H2848   1.084       .  S
C2842      C2843   1.414       .  A
C2843      C2844   1.412       .  A
C2843      C2850   1.516       .  S
C2844      C2845   1.407       .  A
C2844      H2849   1.083       .  S
C2845      C2846   1.421       .  A
C2846      C2847   1.518   1_556  S
C2847      F2851   1.385   1_554  S
C2847      F2852   1.379       .  S
C2847      F2853   1.380       .  S
C2850      F2854   1.383       .  S
C2850      F2855   1.382       .  S
C2850      F2856   1.385       .  S
C2857      C2858   1.401       .  A
C2857      C2862   1.412       .  A
C2857      H2864   1.083       .  S
C2858      C2859   1.417       .  A
C2859      C2860   1.402       .  A
C2859      C2866   1.522       .  S
C2860      C2861   1.403       .  A
C2860      H2865   1.083   1_556  S
C2861      C2862   1.424       .  A
C2862      C2863   1.520       .  S
C2863      F2867   1.385       .  S
C2863      F2868   1.383       .  S
C2863      F2869   1.384       .  S
C2866      F2870   1.383       .  S
C2866      F2871   1.381       .  S
C2866      F2872   1.384   1_556  S
C2873      C2874   1.413       .  A
C2873      C2878   1.412       .  A
C2873      H2880   1.082       .  S
C2874      C2875   1.428       .  A
C2875      C2876   1.406       .  A
C2875      C2882   1.509       .  S
C2876      C2877   1.399       .  A
C2876      H2881   1.085       .  S
C2877      C2878   1.414       .  A
C2878      C2879   1.518       .  S
C2879      F2883   1.385       .  S
C2879      F2884   1.383       .  S
C2879      F2885   1.381       .  S
C2882      F2886   1.361       .  S
C2882      F2887   1.383       .  S
C2882      F2888   1.384       .  S
C2889      C2890   1.409       .  A
C2889      C2894   1.411       .  A
C2889      H2896   1.083       .  S
C2890      C2891   1.419       .  A
C2891      C2892   1.402       .  A
C2891      C2898   1.518       .  S
C2892      C2893   1.400       .  A
C2892      H2897   1.084       .  S
C2893      C2894   1.411       .  A
C2894      C2895   1.514       .  S
C2895      F2899   1.385       .  S
C2895      F2900   1.383       .  S
C2895      F2901   1.383       .  S
C2898      F2902   1.381       .  S
C2898      F2903   1.383       .  S
C2898      F2904   1.385       .  S
C2905      C2906   1.403       .  A
C2905      C2910   1.395       .  A
C2905      H2912   1.083       .  S
C2906      C2907   1.417       .  A
C2907      C2908   1.410       .  A
C2907      C2914   1.517       .  S
C2908      C2909   1.404       .  A
C2908      H2913   1.083       .  S
C2909      C2910   1.413       .  A
C2910      C2911   1.521       .  S
C2911      F2915   1.385       .  S
C2911      F2916   1.382       .  S
C2911      F2917   1.379       .  S
C2914      F2918   1.383       .  S
C2914      F2919   1.383       .  S
C2914      F2920   1.384       .  S
C2921      C2922   1.399       .  A
C2921      C2926   1.401       .  A
C2921      H2928   1.083       .  S
C2922      C2923   1.410       .  A
C2923      C2924   1.400       .  A
C2923      C2930   1.515       .  S
C2924      C2925   1.402       .  A
C2924      H2929   1.084       .  S
C2925      C2926   1.417       .  A
C2926      C2927   1.520       .  S
C2927      F2931   1.385       .  S
C2927      F2932   1.381       .  S
C2927      F2933   1.383       .  S
C2930      F2934   1.383       .  S
C2930      F2935   1.383       .  S
C2930      F2936   1.385       .  S
C2937      C2938   1.387       .  A
C2937      C2942   1.393       .  A
C2937      H2944   1.086       .  S
C2938      C2939   1.412       .  A
C2939      C2940   1.409       .  A
C2939      C2946   1.515       .  S
C2940      C2941   1.406       .  A
C2940      H2945   1.073       .  S
C2941      C2942   1.428       .  A
C2942      C2943   1.508       .  S
C2943      F2947   1.384       .  S
C2943      F2948   1.383       .  S
C2943      F2949   1.360       .  S
C2946      F2950   1.383       .  S
C2946      F2951   1.380       .  S
C2946      F2952   1.384       .  S
C2953      C2954   1.406       .  A
C2953      C2958   1.409       .  A
C2953      H2960   1.083       .  S
C2954      C2955   1.420       .  A
C2955      C2956   1.402       .  A
C2955      C2962   1.523       .  S
C2956      C2957   1.408       .  A
C2956      H2961   1.082       .  S
C2957      C2958   1.421       .  A
C2958      C2959   1.519       .  S
C2959      F2963   1.385       .  S
C2959      F2964   1.380       .  S
C2959      F2965   1.384       .  S
C2962      F2966   1.380       .  S
C2962      F2967   1.383       .  S
C2962      F2968   1.385       .  S
C2969      C2970   1.405       .  A
C2969      C2974   1.411       .  A
C2969      H2976   1.083       .  S
C2970      C2971   1.406       .  A
C2971      C2972   1.389       .  A
C2971      C2978   1.509       .  S
C2972      C2973   1.400       .  A
C2972      H2977   1.083       .  S
C2973      C2974   1.422       .  A
C2974      C2975   1.518       .  S
C2975      F2979   1.384       .  S
C2975      F2980   1.383       .  S
C2975      F2981   1.382       .  S
C2978      F2982   1.382       .  S
C2978      F2983   1.384       .  S
C2978      F2984   1.385       .  S
C2985      C2986   1.410       .  A
C2985      C2990   1.411       .  A
C2985      H2992   1.078       .  S
C2986      C2987   1.425       .  A
C2987      C2988   1.402       .  A
C2987      C2994   1.515       .  S
C2988      C2989   1.397       .  A
C2988      H2993   1.086       .  S
C2989      C2990   1.412       .  A
C2990      C2991   1.514       .  S
C2991      F2995   1.385       .  S
C2991      F2996   1.381       .  S
C2991      F2997   1.383       .  S
C2994      F2998   1.384       .  S
C2994      F2999   1.371       .  S
C2994      F3000   1.383       .  S
C3001      C3002   1.415       .  A
C3001      C3006   1.403       .  A
C3001      H3008   1.081       .  S
C3002      C3003   1.430       .  A
C3003      C3004   1.412       .  A
C3003      C3010   1.513       .  S
C3004      C3005   1.398       .  A
C3004      H3009   1.083       .  S
C3005      C3006   1.411       .  A
C3006      C3007   1.521       .  S
C3007      F3011   1.385       .  S
C3007      F3012   1.383       .  S
C3007      F3013   1.381       .  S
C3010      F3014   1.382       .  S
C3010      F3015   1.381       .  S
C3010      F3016   1.385       .  S
C3017      C3018   1.403       .  A
C3017      C3022   1.414       .  A
C3017      H3024   1.081       .  S
C3018      C3019   1.407       .  A
C3019      C3020   1.395       .  A
C3019      C3026   1.514       .  S
C3020      C3021   1.411       .  A
C3020      H3025   1.080       .  S
C3021      C3022   1.427       .  A
C3022      C3023   1.516       .  S
C3023      F3027   1.384       .  S
C3023      F3028   1.382       .  S
C3023      F3029   1.382       .  S
C3026      F3030   1.383       .  S
C3026      F3031   1.380       .  S
C3026      F3032   1.377       .  S
C3033      C3034   1.395       .  A
C3033      C3038   1.404       .  A
C3033      H3040   1.084       .  S
C3034      C3035   1.407       .  A
C3035      C3036   1.405       .  A
C3035      C3042   1.518       .  S
C3036      C3037   1.415       .  A
C3036      H3041   1.082       .  S
C3037      C3038   1.432       .  A
C3038      C3039   1.522       .  S
C3039      F3043   1.385       .  S
C3039      F3044   1.381       .  S
C3039      F3045   1.382       .  S
C3042      F3046   1.382       .  S
C3042      F3047   1.383       .  S
C3042      F3048   1.384       .  S
C3049      C3050   1.401       .  A
C3049      C3054   1.412       .  A
C3049      H3056   1.083       .  S
C3050      C3051   1.416       .  A
C3051      C3052   1.397       .  A
C3051      C3058   1.523       .  S
C3052      C3053   1.405       .  A
C3052      H3057   1.082       .  S
C3053      C3054   1.426       .  A
C3054      C3055   1.516   1_556  S
C3055      F3059   1.385   1_554  S
C3055      F3060   1.382       .  S
C3055      F3061   1.381       .  S
C3058      F3062   1.383       .  S
C3058      F3063   1.382       .  S
C3058      F3064   1.384       .  S
C3065      C3066   1.394       .  A
C3065      C3070   1.400       .  A
C3065      H3072   1.085       .  S
C3066      C3067   1.414       .  A
C3067      C3068   1.410       .  A
C3067      C3074   1.515       .  S
C3068      C3069   1.408       .  A
C3068      H3073   1.083       .  S
C3069      C3070   1.425       .  A
C3070      C3071   1.516       .  S
C3071      F3075   1.385       .  S
C3071      F3076   1.378       .  S
C3071      F3077   1.377       .  S
C3074      F3078   1.383       .  S
C3074      F3079   1.383       .  S
C3074      F3080   1.385       .  S
C3081      C3082   1.397       .  A
C3081      C3086   1.404       .  A
C3081      H3088   1.084       .  S
C3082      C3083   1.417       .  A
C3083      C3084   1.401       .  A
C3083      C3090   1.521       .  S
C3084      C3085   1.402       .  A
C3084      H3089   1.081       .  S
C3085      C3086   1.423       .  A
C3086      C3087   1.516       .  S
C3087      F3091   1.385       .  S
C3087      F3092   1.382       .  S
C3087      F3093   1.380       .  S
C3090      F3094   1.383       .  S
C3090      F3095   1.383       .  S
C3090      F3096   1.385       .  S
C3097      C3098   1.412       .  A
C3097      C3102   1.410       .  A
C3097      H3104   1.084   1_556  S
C3098      C3099   1.436       .  A
C3099      C3100   1.398       .  A
C3099      C3106   1.526       .  S
C3100      C3101   1.392       .  A
C3100      H3105   1.084       .  S
C3101      C3102   1.414       .  A
C3102      C3103   1.516       .  S
C3103      F3107   1.383       .  S
C3103      F3108   1.382       .  S
C3103      F3109   1.383       .  S
C3106      F3110   1.382       .  S
C3106      F3111   1.377       .  S
C3106      F3112   1.386       .  S
C3113      C3114   1.401       .  A
C3113      C3118   1.397       .  A
C3113      H3120   1.082       .  S
C3114      C3115   1.423       .  A
C3115      C3116   1.410       .  A
C3115      C3122   1.515       .  S
C3116      C3117   1.401       .  A
C3116      H3121   1.084       .  S
C3117      C3118   1.412       .  A
C3118      C3119   1.504       .  S
C3119      F3123   1.385       .  S
C3119      F3124   1.381       .  S
C3119      F3125   1.376       .  S
C3122      F3126   1.383       .  S
C3122      F3127   1.383       .  S
C3122      F3128   1.384       .  S
C3129      C3130   1.398       .  A
C3129      C3134   1.409       .  A
C3129      H3136   1.083       .  S
C3130      C3131   1.419       .  A
C3131      C3132   1.407       .  A
C3131      C3138   1.522       .  S
C3132      C3133   1.406       .  A
C3132      H3137   1.083       .  S
C3133      C3134   1.425       .  A
C3134      C3135   1.516       .  S
C3135      F3139   1.385       .  S
C3135      F3140   1.378       .  S
C3135      F3141   1.384       .  S
C3138      F3142   1.381       .  S
C3138      F3143   1.383       .  S
C3138      F3144   1.385       .  S
C3145      C3146   1.415       .  A
C3145      C3150   1.398       .  A
C3145      H3152   1.082       .  S
C3146      C3147   1.440       .  A
C3147      C3148   1.429       .  A
C3147      C3154   1.515       .  S
C3148      C3149   1.416       .  A
C3148      H3153   1.083       .  S
C3149      C3150   1.407       .  A
C3150      C3151   1.524       .  S
C3151      F3155   1.387       .  S
C3151      F3156   1.381       .  S
C3151      F3157   1.382       .  S
C3154      F3158   1.383       .  S
C3154      F3159   1.377       .  S
C3154      F3160   1.385       .  S
C3161      C3162   1.406       .  A
C3161      C3166   1.396       .  A
C3161      H3168   1.083       .  S
C3162      C3163   1.418       .  A
C3163      C3164   1.416       .  A
C3163      C3170   1.514       .  S
C3164      C3165   1.414       .  A
C3164      H3169   1.083       .  S
C3165      C3166   1.420       .  A
C3166      C3167   1.521       .  S
C3167      F3171   1.386       .  S
C3167      F3172   1.379       .  S
C3167      F3173   1.384       .  S
C3170      F3174   1.375       .  S
C3170      F3175   1.383       .  S
C3170      F3176   1.384       .  S
C3177      C3178   1.393       .  A
C3177      C3182   1.410       .  A
C3177      H3184   1.083       .  S
C3178      C3179   1.415       .  A
C3179      C3180   1.409       .  A
C3179      C3186   1.520       .  S
C3180      C3181   1.412       .  A
C3180      H3185   1.082       .  S
C3181      C3182   1.435       .  A
C3182      C3183   1.513       .  S
C3183      F3187   1.385       .  S
C3183      F3188   1.382   1_655  S
C3183      F3189   1.382       .  S
C3186      F3190   1.382       .  S
C3186      F3191   1.382       .  S
C3186      F3192   1.384       .  S
C3193      C3194   1.406       .  A
C3193      C3198   1.413       .  A
C3193      H3200   1.083       .  S
C3194      C3195   1.413       .  A
C3195      C3196   1.394       .  A
C3195      C3202   1.523       .  S
C3196      C3197   1.403       .  A
C3196      H3201   1.084       .  S
C3197      C3198   1.415       .  A
C3198      C3199   1.516       .  S
C3199      F3203   1.384       .  S
C3199      F3204   1.383       .  S
C3199      F3205   1.383       .  S
C3202      F3206   1.381       .  S
C3202      F3207   1.382       .  S
C3202      F3208   1.385       .  S
C3209      C3210   1.399       .  A
C3209      C3214   1.409       .  A
C3209      H3216   1.083       .  S
C3210      C3211   1.407       .  A
C3211      C3212   1.403       .  A
C3211      C3218   1.520       .  S
C3212      C3213   1.417       .  A
C3212      H3217   1.081       .  S
C3213      C3214   1.429       .  A
C3214      C3215   1.520   1_565  S
C3215      F3219   1.385       .  S
C3215      F3220   1.380       .  S
C3215      F3221   1.383       .  S
C3218      F3222   1.383       .  S
C3218      F3223   1.382       .  S
C3218      F3224   1.385       .  S
C3225      C3226   1.395       .  A
C3225      C3230   1.401       .  A
C3225      H3232   1.086       .  S
C3226      C3227   1.416       .  A
C3227      C3228   1.411       .  A
C3227      C3234   1.517       .  S
C3228      C3229   1.406       .  A
C3228      H3233   1.082       .  S
C3229      C3230   1.428       .  A
C3230      C3231   1.518       .  S
C3231      F3235   1.383       .  S
C3231      F3236   1.370       .  S
C3231      F3237   1.384       .  S
C3234      F3238   1.381       .  S
C3234      F3239   1.383       .  S
C3234      F3240   1.384       .  S
C3241      C3242   1.398       .  A
C3241      C3246   1.401       .  A
C3241      H3248   1.082       .  S
C3242      C3243   1.425       .  A
C3243      C3244   1.411       .  A
C3243      C3250   1.517       .  S
C3244      C3245   1.402       .  A
C3244      H3249   1.084       .  S
C3245      C3246   1.413       .  A
C3246      C3247   1.500       .  S
C3247      F3251   1.383       .  S
C3247      F3252   1.379       .  S
C3247      F3253   1.383       .  S
C3250      F3254   1.383       .  S
C3250      F3255   1.383       .  S
C3250      F3256   1.384       .  S
C3257      C3258   1.404       .  A
C3257      C3262   1.407       .  A
C3257      H3264   1.084       .  S
C3258      C3259   1.416       .  A
C3259      C3260   1.408       .  A
C3259      C3266   1.518       .  S
C3260      C3261   1.410       .  A
C3260      H3265   1.082       .  S
C3261      C3262   1.423       .  A
C3262      C3263   1.519       .  S
C3263      F3267   1.385       .  S
C3263      F3268   1.380       .  S
C3263      F3269   1.383       .  S
C3266      F3270   1.379       .  S
C3266      F3271   1.382       .  S
C3266      F3272   1.385       .  S
C3273      C3274   1.404       .  A
C3273      C3278   1.414       .  A
C3273      H3280   1.083       .  S
C3274      C3275   1.422       .  A
C3275      C3276   1.409       .  A
C3275      C3282   1.520       .  S
C3276      C3277   1.402       .  A
C3276      H3281   1.080       .  S
C3277      C3278   1.424       .  A
C3278      C3279   1.523       .  S
C3279      F3283   1.384       .  S
C3279      F3284   1.376       .  S
C3279      F3285   1.379       .  S
C3282      F3286   1.380       .  S
C3282      F3287   1.378       .  S
C3282      F3288   1.383       .  S
C3289      C3290   1.407       .  A
C3289      C3294   1.402   1_554  A
C3289      H3296   1.084       .  S
C3290      C3291   1.430   1_554  A
C3291      C3292   1.401       .  A
C3291      C3298   1.519       .  S
C3292      C3293   1.393       .  A
C3292      H3297   1.084       .  S
C3293      C3294   1.415       .  A
C3294      C3295   1.519   1_556  S
C3295      F3299   1.384       .  S
C3295      F3300   1.382   1_554  S
C3295      F3301   1.383       .  S
C3298      F3302   1.379       .  S
C3298      F3303   1.383       .  S
C3298      F3304   1.385       .  S
C3305      C3306   1.396       .  A
C3305      C3310   1.396       .  A
C3305      H3312   1.082       .  S
C3306      C3307   1.422       .  A
C3307      C3308   1.404       .  A
C3307      C3314   1.516       .  S
C3308      C3309   1.398       .  A
C3308      H3313   1.085       .  S
C3309      C3310   1.415       .  A
C3310      C3311   1.506       .  S
C3311      F3315   1.384       .  S
C3311      F3316   1.378       .  S
C3311      F3317   1.383       .  S
C3314      F3318   1.383       .  S
C3314      F3319   1.383       .  S
C3314      F3320   1.384       .  S
C3321      C3322   1.402       .  A
C3321      C3326   1.407       .  A
C3321      H3328   1.085       .  S
C3322      C3323   1.412       .  A
C3323      C3324   1.406       .  A
C3323      C3330   1.518       .  S
C3324      C3325   1.406       .  A
C3324      H3329   1.082       .  S
C3325      C3326   1.420       .  A
C3326      C3327   1.513       .  S
C3327      F3331   1.383       .  S
C3327      F3332   1.375       .  S
C3327      F3333   1.383       .  S
C3330      F3334   1.383       .  S
C3330      F3335   1.382       .  S
C3330      F3336   1.385       .  S
C3337      C3338   1.408       .  A
C3337      C3342   1.406       .  A
C3337      H3344   1.080       .  S
C3338      C3339   1.421       .  A
C3339      C3340   1.413       .  A
C3339      C3346   1.513       .  S
C3340      C3341   1.404       .  A
C3340      H3345   1.085       .  S
C3341      C3342   1.412       .  A
C3342      C3343   1.518       .  S
C3343      F3347   1.385       .  S
C3343      F3348   1.382       .  S
C3343      F3349   1.383       .  S
C3346      F3350   1.383       .  S
C3346      F3351   1.376       .  S
C3346      F3352   1.384       .  S
C3353      C3354   1.405       .  A
C3353      C3358   1.411       .  A
C3353      H3360   1.082       .  S
C3354      C3355   1.425       .  A
C3355      C3356   1.403       .  A
C3355      C3362   1.520       .  S
C3356      C3357   1.396       .  A
C3356      H3361   1.085       .  S
C3357      C3358   1.415       .  A
C3358      C3359   1.516       .  S
C3359      F3363   1.385       .  S
C3359      F3364   1.383       .  S
C3359      F3365   1.383       .  S
C3362      F3366   1.378       .  S
C3362      F3367   1.383       .  S
C3362      F3368   1.383       .  S
C3369      C3370   1.404       .  A
C3369      C3374   1.402       .  A
C3369      H3376   1.078       .  S
C3370      C3371   1.419       .  A
C3371      C3372   1.409       .  A
C3371      C3378   1.516       .  S
C3372      C3373   1.404       .  A
C3372      H3377   1.085       .  S
C3373      C3374   1.410       .  A
C3374      C3375   1.519       .  S
C3375      F3379   1.385       .  S
C3375      F3380   1.383       .  S
C3375      F3381   1.383       .  S
C3378      F3382   1.379       .  S
C3378      F3383   1.383       .  S
C3378      F3384   1.383       .  S
C3385      C3386   1.391       .  A
C3385      C3390   1.401       .  A
C3385      H3392   1.083       .  S
C3386      C3387   1.412       .  A
C3387      C3388   1.403       .  A
C3387      C3394   1.520       .  S
C3388      C3389   1.408       .  A
C3388      H3393   1.083   1_565  S
C3389      C3390   1.433       .  A
C3390      C3391   1.521       .  S
C3391      F3395   1.385       .  S
C3391      F3396   1.380       .  S
C3391      F3397   1.383       .  S
C3394      F3398   1.383       .  S
C3394      F3399   1.382       .  S
C3394      F3400   1.384   1_565  S
C3401      C3402   1.396       .  A
C3401      C3406   1.399       .  A
C3401      H3408   1.082       .  S
C3402      C3403   1.424       .  A
C3403      C3404   1.407       .  A
C3403      C3410   1.516       .  S
C3404      C3405   1.399       .  A
C3404      H3409   1.084       .  S
C3405      C3406   1.419       .  A
C3406      C3407   1.506       .  S
C3407      F3411   1.384       .  S
C3407      F3412   1.381       .  S
C3407      F3413   1.379       .  S
C3410      F3414   1.383       .  S
C3410      F3415   1.383       .  S
C3410      F3416   1.384       .  S
C3417      C3418   1.405       .  A
C3417      C3422   1.409       .  A
C3417      H3424   1.085       .  S
C3418      C3419   1.414       .  A
C3419      C3420   1.407       .  A
C3419      C3426   1.519       .  S
C3420      C3421   1.406       .  A
C3420      H3425   1.081       .  S
C3421      C3422   1.420       .  A
C3422      C3423   1.516       .  S
C3423      F3427   1.383       .  S
C3423      F3428   1.383       .  S
C3423      F3429   1.378       .  S
C3426      F3430   1.383       .  S
C3426      F3431   1.381       .  S
C3426      F3432   1.385       .  S
C3433      C3434   1.397       .  A
C3433      C3438   1.399       .  A
C3433      H3440   1.086       .  S
C3434      C3435   1.420       .  A
C3435      C3436   1.409       .  A
C3435      C3442   1.518       .  S
C3436      C3437   1.403       .  A
C3436      H3441   1.085       .  S
C3437      C3438   1.421       .  A
C3438      C3439   1.517       .  S
C3439      F3443   1.383       .  S
C3439      F3444   1.377       .  S
C3439      F3445   1.382       .  S
C3442      F3446   1.383       .  S
C3442      F3447   1.382       .  S
C3442      F3448   1.384       .  S
C3449      C3450   1.410       .  A
C3449      C3454   1.405       .  A
C3449      H3456   1.085       .  S
C3450      C3451   1.428       .  A
C3451      C3452   1.409       .  A
C3451      C3458   1.519       .  S
C3452      C3453   1.399       .  A
C3452      H3457   1.083       .  S
C3453      C3454   1.415       .  A
C3454      C3455   1.518       .  S
C3455      F3459   1.383       .  S
C3455      F3460   1.379       .  S
C3455      F3461   1.383       .  S
C3458      F3462   1.379       .  S
C3458      F3463   1.381       .  S
C3458      F3464   1.379       .  S
C3465      C3466   1.399       .  A
C3465      C3470   1.406       .  A
C3465      H3472   1.085       .  S
C3466      C3467   1.421       .  A
C3467      C3468   1.405       .  A
C3467      C3474   1.518       .  S
C3468      C3469   1.400       .  A
C3468      H3473   1.083       .  S
C3469      C3470   1.424       .  A
C3470      C3471   1.521       .  S
C3471      F3475   1.384       .  S
C3471      F3476   1.380       .  S
C3471      F3477   1.383       .  S
C3474      F3478   1.383       .  S
C3474      F3479   1.380       .  S
C3474      F3480   1.384       .  S
C3481      C3482   1.417       .  A
C3481      C3486   1.416       .  A
C3481      H3488   1.082       .  S
C3482      C3483   1.423       .  A
C3483      C3484   1.398       .  A
C3483      C3490   1.518   1_556  S
C3484      C3485   1.401       .  A
C3484      H3489   1.085       .  S
C3485      C3486   1.415       .  A
C3486      C3487   1.518       .  S
C3487      F3491   1.384       .  S
C3487      F3492   1.383       .  S
C3487      F3493   1.379       .  S
C3490      F3494   1.383       .  S
C3490      F3495   1.379       .  S
C3490      F3496   1.386       .  S
C3497      C3498   1.400       .  A
C3497      C3502   1.410       .  A
C3497      H3504   1.084       .  S
C3498      C3499   1.417       .  A
C3499      C3500   1.404       .  A
C3499      C3506   1.506       .  S
C3500      C3501   1.403       .  A
C3500      H3505   1.080       .  S
C3501      C3502   1.429       .  A
C3502      C3503   1.517       .  S
C3503      F3507   1.384       .  S
C3503      F3508   1.383       .  S
C3503      F3509   1.384       .  S
C3506      F3510   1.382       .  S
C3506      F3511   1.379       .  S
C3506      F3512   1.384       .  S
C3513      C3514   1.405       .  A
C3513      C3518   1.412       .  A
C3513      H3520   1.085       .  S
C3514      C3515   1.417       .  A
C3515      C3516   1.411       .  A
C3515      C3522   1.519       .  S
C3516      C3517   1.408       .  A
C3516      H3521   1.082       .  S
C3517      C3518   1.422       .  A
C3518      C3519   1.514       .  S
C3519      F3523   1.383       .  S
C3519      F3524   1.383       .  S
C3519      F3525   1.375       .  S
C3522      F3526   1.383       .  S
C3522      F3527   1.381       .  S
C3522      F3528   1.385       .  S
