geometry optimzed in LAMMPS
_audit_creation_date              2020-11-30 
_audit_creation_method            'lammps2cif' 
_symmetry_space_group_name_H-M    'P1' 
_symmetry_Int_Tables_number       1 
_symmetry_cell_setting            triclinic 
loop_ 
_symmetry_equiv_pos_as_xyz 
  x,y,z 
_cell_length_a                    37.68187005 
_cell_length_b                    36.45097957882062 
_cell_length_c                    36.797033283564275 
_cell_angle_alpha                 87.56134766678012 
_cell_angle_beta                  89.42289520667374 
_cell_angle_gamma                 89.8144271382324 
loop_ 
_atom_site_label 
_atom_site_type_symbol 
_atom_site_fract_x 
_atom_site_fract_y 
_atom_site_fract_z 
_atom_site_charge 
O1          O  0.58715658  0.97898022  0.47083836    -0.81200
O2          O  0.44017912  0.96101900  0.51753695    -0.81200
O3          O  0.50718189  0.93726640  0.55555692    -0.81200
O4          O  0.48602097  0.94778158  0.45222462    -0.81200
O5          O  0.47315454  0.97628118  0.58073118    -0.81300
O6          O  0.52957007  0.98065170  0.42622612    -0.81200
O7          O  0.41778649  0.97812284  0.46522800    -0.81200
O8          O  0.56690344  0.93547228  0.50930403    -0.81200
C9          C  0.58891449  0.94663279  0.48475594     1.08500
C10         C  0.41272425  0.96377598  0.49710837     1.08400
C11         C  0.49072844  0.94656374  0.58362750     1.08500
C12         C  0.50667506  0.95461213  0.42527270     1.08400
O13         O  0.51200840  0.05303255  0.45276727    -0.81200
O14         O  0.49629063  0.04636932  0.55031763    -0.81300
O15         O  0.58865717  0.00331256  0.53636106    -0.81200
O16         O  0.44584954  0.03972505  0.49277978    -0.81200
O17         O  0.42414990  0.02651222  0.54668534    -0.81200
O18         O  0.56956542  0.04858134  0.49993435    -0.81200
O19         O  0.47318328  0.02024992  0.42714972    -0.81200
O20         O  0.53088438  0.00858733  0.58183176    -0.81200
Co21       Co  0.54745713  0.01503901  0.46476804     1.51500
Co22       Co  0.46965440  0.00530168  0.53222241     1.51700
Co23       Co  0.54604153  0.97146084  0.54340437     1.51600
Co24       Co  0.46715186  0.99121474  0.47544843     1.51500
O25         O  0.51428371  0.99364260  0.50333419    -1.43100
C26         C  0.49571054  0.04600342  0.42426310     1.08400
C27         C  0.51270918  0.03847886  0.57936109     1.08500
C28         C  0.59140703  0.03586717  0.52336819     1.08400
C29         C  0.41973741  0.04187406  0.51535211     1.08400
O30         O  0.96173719  0.55115475  0.53045405    -0.81200
O31         O  0.95749123  0.43790383  0.46539222    -0.81200
O32         O  0.96466228  0.51984928  0.43071484    -0.81200
O33         O  0.96796236  0.47096820  0.56876212    -0.81200
O34         O  0.99195246  0.47233961  0.41001857    -0.81300
O35         O  0.99610422  0.52078907  0.58396763    -0.81200
O36         O  0.96940809  0.41524602  0.51969687    -0.81200
O37         O  0.97023760  0.57642612  0.47809305    -0.81200
C38         C  0.95595019  0.57771423  0.50887966     1.08500
C39         C  0.95197109  0.41394298  0.49047100     1.08400
C40         C  0.97126917  0.49910080  0.40480073     1.08500
C41         C  0.97469851  0.49447071  0.59209010     1.08400
O42         O  0.06084011  0.51850058  0.54069325    -0.81200
O43         O  0.05592566  0.46689660  0.45308078    -0.81300
O44         O  0.04435035  0.56367794  0.48597162    -0.81200
O45         O  0.04588305  0.42267145  0.51474061    -0.81200
O46         O  0.02021838  0.40730392  0.46509999    -0.81200
O47         O  0.02650141  0.58564041  0.53772554    -0.81200
O48         O  0.04298345  0.47055459  0.57206817    -0.81200
O49         O  0.04174003  0.51796453  0.42554177    -0.81200
Co50       Co  0.01135210  0.53471237  0.53194269     1.51500
Co51       Co  0.00502843  0.45883451  0.46047513     1.51700
Co52       Co  0.00467844  0.53868007  0.45996200     1.51600
Co53       Co  0.00619836  0.44909438  0.53986431     1.51500
O54         O  0.99975598  0.49314125  0.50096213    -1.43100
C55         C  0.06295690  0.49829356  0.56927323     1.08400
C56         C  0.06094133  0.48937406  0.42695781     1.08500
C57         C  0.04002328  0.59148293  0.50587919     1.08400
C58         C  0.04087883  0.39917583  0.49067856     1.08400
O59         O  0.42078553  0.53575607  0.00941734    -0.81200
O60         O  0.56477622  0.47688766  0.02762144    -0.81200
O61         O  0.49323431  0.44311954  0.04775039    -0.81200
O62         O  0.52058001  0.54140668  0.04572672    -0.81200
O63         O  0.52700875  0.41645091  0.00973949    -0.81300
O64         O  0.48160527  0.57615786  0.01576608    -0.81200
O65         O  0.58906709  0.53011030  0.01548330    -0.81200
O66         O  0.43796769  0.49347413  0.05010387    -0.81200
C67         C  0.41744587  0.51959454  0.04024979     1.08500
C68         C  0.59264647  0.49714458  0.02801224     1.08400
C69         C  0.50776002  0.41393898  0.03839492     1.08500
C70         C  0.50335757  0.57122731  0.04244030     1.08400
O71         O  0.49828913  0.55635045  0.93943129    -0.81200
O72         O  0.50934608  0.44884781  0.94029582    -0.81300
O73         O  0.41688899  0.47213730  0.97966514    -0.81200
O74         O  0.56242425  0.50861386  0.95177485    -0.81200
O75         O  0.58056749  0.45190336  0.96133226    -0.81200
O76         O  0.43832062  0.51315893  0.93902797    -0.81200
O77         O  0.53683388  0.57532033  0.97642742    -0.81200
O78         O  0.46991010  0.42111712  0.97615663    -0.81200
Co79       Co  0.46201759  0.54270497  0.97612678     1.51500
Co80       Co  0.53515748  0.46615013  0.98224734     1.51700
Co81       Co  0.45689626  0.45985707  0.01310789     1.51600
Co82       Co  0.53994284  0.52303442  0.00029321     1.51500
O83         O  0.49188668  0.49848160  0.99319662    -1.43100
C84         C  0.51659090  0.58258758  0.94950686     1.08400
C85         C  0.49016039  0.42106848  0.94793729     1.08500
C86         C  0.41557140  0.48892005  0.94879430     1.08400
C87         C  0.58696336  0.48431883  0.94834475     1.08400
C88         C  0.57985175  0.91461333  0.77737441     0.79200
N89         N  0.55861671  0.92090685  0.74775269    -0.79100
C90         C  0.56325194  0.90124970  0.71713008     0.81600
N91         N  0.58935691  0.87541335  0.71701072    -0.79100
C92         C  0.61005645  0.86855750  0.74639987     0.81700
N93         N  0.60520879  0.88818874  0.77633677    -0.80800
C94         C  0.75472986  0.71269051  0.77519468     0.79200
N95         N  0.78131841  0.71511561  0.75005922    -0.79100
C96         C  0.78176540  0.74225806  0.72370101     0.81600
N97         N  0.75532048  0.76766231  0.72285372    -0.79100
C98         C  0.72856187  0.76623990  0.74791410     0.81700
N99         N  0.72873252  0.73864277  0.77410605    -0.80800
C100        C  0.92947254  0.71766313  0.57360866     0.79200
N101        N  0.90234897  0.71985044  0.59776752    -0.79100
C102        C  0.89651372  0.75042912  0.61658496     0.81600
N103        N  0.91863397  0.77947909  0.61080530    -0.79100
C104        C  0.94597616  0.77858958  0.58617280     0.81700
N105        N  0.95110978  0.74730927  0.56742092    -0.80800
C106        C  0.78833706  0.56005511  0.93270678     0.79200
N107        N  0.78789184  0.58646019  0.90551131    -0.79100
C108        C  0.75915389  0.59262152  0.88456642     0.81600
N109        N  0.72970089  0.57234225  0.89133243    -0.79100
C110        C  0.72832654  0.54581517  0.91840373     0.81700
N111        N  0.75804498  0.53959864  0.93935928    -0.80800
C112        C  0.27333606  0.22330140  0.73125743     0.79200
N113        N  0.24389162  0.21890113  0.71083473    -0.79100
C114        C  0.21539154  0.24165392  0.71411769     0.81600
N115        N  0.21672633  0.26895303  0.73816742    -0.79100
C116        C  0.24563511  0.27348020  0.75916948     0.81700
N117        N  0.27364289  0.25050304  0.75528398    -0.80800
C118        C  0.28617401  0.42757307  0.90165570     0.79200
N119        N  0.28530555  0.40354571  0.87435332    -0.79100
C120        C  0.25696345  0.38116937  0.87050682     0.81600
N121        N  0.22923948  0.38305856  0.89408060    -0.79100
C122        C  0.22940720  0.40652576  0.92170927     0.81700
N123        N  0.25805607  0.42879079  0.92524446    -0.80800
C124        C  0.42196776  0.07497948  0.76742150     0.79200
N125        N  0.44398304  0.06987442  0.73832510    -0.79100
C126        C  0.43996638  0.09023785  0.70654805     0.81600
N127        N  0.41406349  0.11634266  0.70478680    -0.79100
C128        C  0.39235473  0.12198637  0.73362138     0.81700
N129        N  0.39631694  0.10104266  0.76448970    -0.80800
C130        C  0.05653662  0.20547745  0.57949815     0.79200
N131        N  0.07869858  0.20774237  0.60825913    -0.79100
C132        C  0.09995547  0.23732060  0.61156627     0.81600
N133        N  0.09895484  0.26477362  0.58573171    -0.79100
C134        C  0.07748404  0.26324728  0.55651699     0.81700
N135        N  0.05592460  0.23352538  0.55371906    -0.80800
O136        O  0.48849400  0.03051604  0.91127593    -0.81200
O137        O  0.45639536  0.98650540  0.06022711    -0.81200
O138        O  0.44168606  0.94833511  0.99370226    -0.81200
O139        O  0.44884452  0.04828286  0.00689072    -0.81200
O140        O  0.47313657  0.91929535  0.03315557    -0.81300
O141        O  0.48442633  0.07755859  0.96805209    -0.81200
O142        O  0.47064708  0.04038164  0.07932526    -0.81200
O143        O  0.44574486  0.99402964  0.93238713    -0.81200
C144        C  0.45807147  0.01662038  0.90842607     1.08500
C145        C  0.45467945  0.01001474  0.08523297     1.08400
C146        C  0.44779300  0.91853026  0.01057452     1.08500
C147        C  0.45716925  0.07765016  0.98924579     1.08400
O148        O  0.55375177  0.04930926  0.99109797    -0.81200
O149        O  0.54375321  0.94134689  0.01768405    -0.81300
O150        O  0.51275948  0.96271742  0.91578079    -0.81200
O151        O  0.53315124  0.00790846  0.06071687    -0.81200
O152        O  0.51706209  0.95580850  0.08723635    -0.81200
O153        O  0.55418470  0.00137168  0.93304859    -0.81200
O154        O  0.51681868  0.07394622  0.02750505    -0.81200
O155        O  0.51121366  0.91587504  0.97615587    -0.81200
Co156      Co  0.51972009  0.03702157  0.95339517     1.51500
Co157      Co  0.50217630  0.96682297  0.03704077     1.51700
Co158      Co  0.47818395  0.95761303  0.95657285     1.51600
Co159      Co  0.48925548  0.02584303  0.03275463     1.51500
O160        O  0.49894563  0.99650834  0.98798412    -1.43100
C161        C  0.54396301  0.07756764  0.00709528     1.08400
C162        C  0.53692779  0.91387353  0.99891054     1.08500
C163        C  0.54327369  0.97693025  0.91211972     1.08400
C164        C  0.53273473  0.98667273  0.08947749     1.08400
C165        C  0.28411069  0.74713332  0.77552757     0.79200
N166        N  0.28245220  0.77549684  0.75001611    -0.79100
C167        C  0.25719178  0.77653837  0.72358918     0.81600
N168        N  0.23303655  0.74886522  0.72327270    -0.79100
C169        C  0.23381487  0.72050864  0.74851661     0.81700
N170        N  0.25940688  0.71994206  0.77443905    -0.80800
C171        C  0.43962846  0.72065900  0.92178040     0.79200
N172        N  0.44223469  0.75045970  0.94324861    -0.79100
C173        C  0.42035220  0.78033495  0.93824153     0.81600
N174        N  0.39602952  0.77995325  0.91092780    -0.79100
C175        C  0.39312208  0.75078502  0.88910488     0.81700
N176        N  0.41496782  0.72127861  0.89489903    -0.80800
C177        C  0.21553485  0.94826425  0.58723093     0.79200
N178        N  0.24559960  0.95747667  0.56748664    -0.79100
C179        C  0.27706216  0.93958520  0.57447528     0.81600
N180        N  0.27790714  0.91218212  0.60081044    -0.79100
C181        C  0.24859552  0.90298369  0.62072308     0.81700
N182        N  0.21772457  0.92115412  0.61386301    -0.80800
C183        C  0.09235079  0.56191750  0.70884404     0.79200
N184        N  0.07431753  0.55216780  0.74041008    -0.79100
C185        C  0.08167063  0.56917902  0.77203744     0.81600
N186        N  0.10695108  0.59590914  0.77113781    -0.79100
C187        C  0.12561490  0.60548683  0.74032870     0.81700
N188        N  0.11790804  0.58816564  0.70948354    -0.80800
C189        C  0.74457471  0.27333555  0.22152040     0.79200
N190        N  0.71940099  0.24662772  0.22091870    -0.79100
C191        C  0.71807015  0.21904806  0.24709974     0.81600
N192        N  0.74228803  0.21866316  0.27444172    -0.79100
C193        C  0.76796757  0.24479560  0.27505857     0.81700
N194        N  0.76896307  0.27186798  0.24854563    -0.80800
C195        C  0.90517007  0.27868707  0.43130043     0.79200
N196        N  0.92640802  0.24867188  0.43823403    -0.79100
C197        C  0.92158287  0.21719910  0.41995545     0.81600
N198        N  0.89603980  0.21666117  0.39406537    -0.79100
C199        C  0.87415513  0.24579011  0.38779989     0.81700
N200        N  0.87866428  0.27649226  0.40668908    -0.80800
C201        C  0.79091583  0.41439298  0.05531010     0.79200
N202        N  0.76186558  0.43558219  0.04625192    -0.79100
C203        C  0.73114836  0.43221973  0.06644362     0.81600
N204        N  0.72978030  0.40732758  0.09505229    -0.79100
C205        C  0.75833293  0.38636559  0.10457276     0.81700
N206        N  0.78855817  0.39007636  0.08440394    -0.80800
C207        C  0.55686481  0.07961760  0.28027253     0.79200
N208        N  0.55029130  0.05951264  0.25054383    -0.79100
C209        C  0.57100295  0.06397028  0.21984885     0.81600
N210        N  0.59888295  0.08787728  0.21997072    -0.79100
C211        C  0.60589470  0.10783610  0.24952158     0.81700
N212        N  0.58445366  0.10358346  0.27916021    -0.80800
O213        O  0.95338706  0.53401428  0.97551388    -0.81200
O214        O  0.09877719  0.51191551  0.02851638    -0.81200
O215        O  0.99722570  0.54987101  0.04823447    -0.81200
O216        O  0.02259639  0.55025720  0.93961298    -0.81200
O217        O  0.04252522  0.52046360  0.07355830    -0.81300
O218        O  0.98716160  0.51044054  0.91794534    -0.81200
O219        O  0.07994263  0.55406459  0.98839462    -0.81200
O220        O  0.93337081  0.52470909  0.02944424    -0.81200
C221        C  0.92780715  0.53666593  0.99784699     1.08500
C222        C  0.10109522  0.54367783  0.01359310     1.08400
C223        C  0.02033575  0.54729273  0.07276243     1.08500
C224        C  0.00751716  0.53810043  0.91212209     1.08400
O225        O  0.00697590  0.44271913  0.95650988    -0.81200
O226        O  0.02031307  0.44595202  0.05869316    -0.81300
O227        O  0.95306912  0.45718027  0.01981576    -0.81200
O228        O  0.09934233  0.48151201  0.96905405    -0.81200
O229        O  0.07616871  0.44094288  0.00851232    -0.81200
O230        O  0.93559924  0.46396634  0.96254285    -0.81200
O231        O  0.04413268  0.47607203  0.92291220    -0.81200
O232        O  0.98396268  0.48190083  0.08414295    -0.81200
Co233      Co  0.98116310  0.48702713  0.96974848     1.51500
Co234      Co  0.05688085  0.48028182  0.03918362     1.51700
Co235      Co  0.98082574  0.50260231  0.03337347     1.51600
Co236      Co  0.05922505  0.51574005  0.95740847     1.51500
O237        O  0.02409224  0.50084793  0.99813662    -1.43100
C238        C  0.02369206  0.44817896  0.92672738     1.08400
C239        C  0.00577849  0.45605208  0.08779460     1.08500
C240        C  0.92982940  0.45156349  0.99519997     1.08400
C241        C  0.09978536  0.45007651  0.98508727     1.08400
C242        C  0.22290437  0.06980300  0.43628260     0.79200
N243        N  0.25312435  0.06141893  0.45539187    -0.79100
C244        C  0.28428330  0.07909739  0.44658396     0.81600
N245        N  0.28461000  0.10526640  0.41902126    -0.79100
C246        C  0.25502537  0.11374744  0.39971241     0.81700
N247        N  0.22465546  0.09535868  0.40829013    -0.80800
C248        C  0.25482208  0.21786628  0.27509058     0.79200
N249        N  0.22951062  0.24443335  0.27480158    -0.79100
C250        C  0.22819437  0.27040542  0.24722663     0.81600
N251        N  0.25207655  0.26909659  0.21922314    -0.79100
C252        C  0.27763421  0.24245295  0.21896907     0.81700
N253        N  0.27904716  0.21728500  0.24745007    -0.80800
C254        C  0.07744959  0.42559046  0.22489424     0.79200
N255        N  0.07222522  0.44175648  0.25746345    -0.79100
C256        C  0.09116338  0.42965549  0.28726170     0.81600
N257        N  0.11505904  0.40198305  0.28383551    -0.79100
C258        C  0.12023065  0.38544353  0.25185929     0.81700
N259        N  0.10117063  0.39756159  0.22276763    -0.80800
C260        C  0.43830717  0.27375721  0.07645755     0.79200
N261        N  0.41058524  0.27409368  0.10066908    -0.79100
C262        C  0.38830632  0.24498477  0.10550559     0.81600
N263        N  0.39441899  0.21469130  0.08602941    -0.79100
C264        C  0.42204694  0.21300252  0.06197510     0.81700
N265        N  0.44361758  0.24300704  0.05693081    -0.80800
C266        C  0.78078153  0.28618348  0.76646250     0.79200
N267        N  0.78000272  0.26150798  0.73965600    -0.79100
C268        C  0.75345017  0.23654897  0.73821377     0.81600
N269        N  0.72757441  0.23596072  0.76404039    -0.79100
C270        C  0.72767050  0.26002243  0.79117866     0.81700
N271        N  0.75417233  0.28539614  0.79196760    -0.80800
C272        C  0.93645356  0.43294335  0.73460402     0.79200
N273        N  0.90900676  0.40868050  0.73500938    -0.79100
C274        C  0.90126619  0.38705121  0.76495449     0.81600
N275        N  0.92109366  0.39011224  0.79525105    -0.79100
C276        C  0.94839157  0.41437013  0.79602144     0.81700
N277        N  0.95604713  0.43549394  0.76539252    -0.80800
C278        C  0.57154433  0.22090599  0.93415911     0.79200
N279        N  0.54854695  0.24998234  0.93620836    -0.79100
C280        C  0.55472247  0.28205203  0.91623828     0.81600
N281        N  0.58452825  0.28446717  0.89493076    -0.79100
C282        C  0.60808533  0.25634739  0.89336280     0.81700
N283        N  0.60117581  0.22476282  0.91299285    -0.80800
C284        C  0.71845253  0.09166567  0.58822631     0.79200
N285        N  0.74932442  0.07381987  0.58014216    -0.79100
C286        C  0.78033709  0.08187414  0.59695017     0.81600
N287        N  0.77995365  0.10763900  0.62253558    -0.79100
C288        C  0.74971751  0.12601294  0.63044685     0.81700
N289        N  0.71919892  0.11818381  0.61311381    -0.80800
C290        C  0.73287813  0.73716255  0.20716239     0.79200
N291        N  0.73027718  0.76064086  0.23480622    -0.79100
C292        C  0.75356860  0.75915038  0.26278679     0.81600
N293        N  0.78000223  0.73360320  0.26260692    -0.79100
C294        C  0.78287232  0.70950612  0.23548821     0.81700
N295        N  0.75921503  0.71150223  0.20776106    -0.80800
C296        C  0.72047502  0.89827095  0.42140186     0.79200
N297        N  0.72163914  0.87229105  0.39591387    -0.79100
C298        C  0.75177522  0.86633285  0.37635567     0.81600
N299        N  0.78080658  0.88738651  0.38183337    -0.79100
C300        C  0.78037011  0.91394144  0.40677733     0.81700
N301        N  0.74998970  0.91902111  0.42653787    -0.80800
C302        C  0.95778491  0.58727080  0.20593985     0.79200
N303        N  0.92860781  0.60959244  0.20431442    -0.79100
C304        C  0.90580870  0.61176851  0.23315129     0.81600
N305        N  0.91291929  0.59157399  0.26409417    -0.79100
C306        C  0.94191989  0.56959593  0.26645709     0.81700
N307        N  0.96388753  0.56725539  0.23719942    -0.80800
C308        C  0.57979217  0.76981286  0.06112446     0.79200
N309        N  0.60914461  0.76818006  0.08257360    -0.79100
C310        C  0.61768410  0.73736556  0.10276147     0.81600
N311        N  0.59608282  0.70783173  0.10168871    -0.79100
C312        C  0.56657826  0.70812733  0.08072567     0.81700
N313        N  0.55835659  0.73941098  0.06039872    -0.80800
C314        C  0.23149096  0.76084622  0.28873510     0.79200
N315        N  0.25980180  0.78389064  0.28961690    -0.79100
C316        C  0.28710764  0.78137473  0.26531079     0.81600
N317        N  0.28569443  0.75557989  0.23977022    -0.79100
C318        C  0.25796469  0.73203736  0.23887844     0.81700
N319        N  0.23097408  0.73484445  0.26329720    -0.80800
C320        C  0.44621048  0.92162389  0.28620672     0.79200
N321        N  0.44856627  0.94483895  0.25588222    -0.79100
C322        C  0.42668000  0.94049631  0.22676333     0.81600
N323        N  0.40265336  0.91270987  0.22860683    -0.79100
C324        C  0.40022692  0.88933143  0.25809077     0.81700
N325        N  0.42179686  0.89420770  0.28665226    -0.80800
C326        C  0.06475986  0.79251362  0.41813137     0.79200
N327        N  0.09314956  0.79207436  0.39489967    -0.79100
C328        C  0.11505333  0.76238402  0.39414477     0.81600
N329        N  0.10857351  0.73307211  0.41725242    -0.79100
C330        C  0.08088926  0.73328998  0.44114745     0.81700
N331        N  0.05895405  0.76295344  0.44133663    -0.80800
C332        C  0.28847638  0.58360588  0.09274611     0.79200
N333        N  0.25800686  0.57593571  0.07470826    -0.79100
C334        C  0.22683287  0.59302732  0.08319945     0.81600
N335        N  0.22667785  0.61818076  0.10941311    -0.79100
C336        C  0.25664889  0.62548031  0.12774556     0.81700
N337        N  0.28727478  0.60805660  0.11953745    -0.80800
O338        O  0.98989841  0.94698540  0.55466781    -0.81200
O339        O  0.99988141  0.04676155  0.55102720    -0.81200
O340        O  0.05491250  0.98969576  0.54158793    -0.81200
O341        O  0.90882945  0.02847278  0.50922408    -0.81200
O342        O  0.07270023  0.04610852  0.53123740    -0.81300
O343        O  0.92922624  0.99043387  0.55265216    -0.81200
O344        O  0.96330400  0.07703187  0.51444666    -0.81200
O345        O  0.02911741  0.92449080  0.51945119    -0.81200
C346        C  0.00891788  0.92002797  0.54701349     1.08500
C347        C  0.98195358  0.07540567  0.54342239     1.08400
C348        C  0.07899574  0.01423759  0.54527936     1.08500
C349        C  0.90683936  0.01432665  0.54121301     1.08400
O350        O  0.91383139  0.96360694  0.48298253    -0.81200
O351        O  0.05966794  0.01866280  0.46557518    -0.81300
O352        O  0.01400401  0.95458114  0.44911530    -0.81200
O353        O  0.98958557  0.05359683  0.44377130    -0.81200
O354        O  0.02193769  0.08031323  0.48226024    -0.81200
O355        O  0.97427407  0.92209242  0.48123172    -0.81200
O356        O  0.93244856  0.00424062  0.44077835    -0.81200
O357        O  0.08154926  0.96430981  0.47891538    -0.81200
Co358      Co  0.95390100  0.95805794  0.51774984     1.51500
Co359      Co  0.02822618  0.03060092  0.50991367     1.51700
Co360      Co  0.03284860  0.97461647  0.49316272     1.51600
Co361      Co  0.95085563  0.03866415  0.47714544     1.51500
O362        O  0.98474757  0.99997958  0.49840602    -1.43100
C363        C  0.91118154  0.97886833  0.45155613     1.08400
C364        C  0.08664398  0.99679994  0.46602340     1.08500
C365        C  0.99592463  0.92555861  0.45400198     1.08400
C366        C  0.00300327  0.08299590  0.45386289     1.08400
C367        C  0.04133714  0.82566571  0.41889403    -0.07200
C368        C  0.05458122  0.85940718  0.40483718    -0.18300
C369        C  0.03670589  0.89242979  0.41044491     0.10000
C370        C  0.00628338  0.89254252  0.43354882    -0.07100
C371        C  0.99063702  0.85853412  0.44348257    -0.18300
C372        C  0.00691839  0.82530030  0.43481735     0.10000
S373        S  0.05496770  0.93318442  0.38798388    -0.33300
S374        S  0.98162503  0.78385489  0.44318572    -0.33300
H375        H  0.99546101  0.76608922  0.41289501     0.28100
H376        H  0.02158445  0.94945554  0.38132015     0.28000
H377        H  0.07958324  0.86040270  0.39003793     0.18600
H378        H  0.96607480  0.85768252  0.45905416     0.18600
C379        C  0.25694680  0.70421429  0.21087431    -0.07200
C380        C  0.26357536  0.71544860  0.17446484    -0.18300
C381        C  0.26304997  0.69016733  0.14679792     0.10000
C382        C  0.25627928  0.65293986  0.15578576    -0.07100
C383        C  0.24992773  0.64150510  0.19207218    -0.18300
C384        C  0.25017611  0.66678823  0.21980490     0.10000
S385        S  0.27122622  0.70532606  0.10009567    -0.33300
S386        S  0.24383695  0.65072220  0.26655641    -0.33300
H387        H  0.24139715  0.61311335  0.25985574     0.28100
H388        H  0.27225027  0.74314082  0.10620045     0.28000
H389        H  0.26891978  0.74412825  0.16775706     0.18600
H390        H  0.24507812  0.61269242  0.19857879     0.18600
C391        C  0.20175073  0.76262376  0.31579747    -0.07200
C392        C  0.18219378  0.73039743  0.32377682    -0.18300
C393        C  0.15387384  0.72949527  0.34886252     0.10000
C394        C  0.14488567  0.76154074  0.36734215    -0.07100
C395        C  0.16418204  0.79385480  0.35934425    -0.18300
C396        C  0.19203517  0.79493146  0.33370029     0.10000
S397        S  0.12823156  0.68774287  0.35503860    -0.33300
S398        S  0.21250174  0.83892375  0.32400184    -0.33300
H399        H  0.21218301  0.83563007  0.28603863     0.28100
H400        H  0.14841152  0.66600311  0.33179819     0.28000
H401        H  0.18906159  0.70559837  0.31014269     0.18600
H402        H  0.15721470  0.81872651  0.37292280     0.18600
C403        C  0.31754623  0.80740025  0.26506229    -0.07200
C404        C  0.33553150  0.81506100  0.23190226    -0.18300
C405        C  0.36354494  0.84015944  0.22916466     0.10000
C406        C  0.37326238  0.85970056  0.25990258    -0.07100
C407        C  0.35616889  0.85128353  0.29331591    -0.18300
C408        C  0.32913172  0.82499650  0.29642413     0.10000
S409        S  0.38673884  0.84444350  0.18608211    -0.33300
S410        S  0.31201296  0.81419692  0.34150447    -0.33300
H411        H  0.31092319  0.77608871  0.33687039     0.28100
H412        H  0.42050271  0.84875213  0.20130647     0.28000
H413        H  0.32785262  0.80128400  0.20768627     0.18600
H414        H  0.36393275  0.86531629  0.31736086     0.18600
C415        C  0.81375160  0.93534409  0.41329396    -0.07200
C416        C  0.84657494  0.92068187  0.40183630    -0.18300
C417        C  0.87911950  0.93686759  0.41018125     0.10000
C418        C  0.87962492  0.96878338  0.43042895    -0.07100
C419        C  0.84712967  0.98498868  0.43983382    -0.18300
C420        C  0.81432942  0.96899893  0.43143714     0.10000
S421        S  0.91924997  0.91414640  0.39626629    -0.33300
S422        S  0.77396748  0.99233761  0.44425408    -0.33300
H423        H  0.78972160  0.01930776  0.46500786     0.28100
H424        H  0.94089454  0.94550068  0.39616578     0.28000
H425        H  0.84720954  0.89542759  0.38739459     0.18600
H426        H  0.84758451  0.00930302  0.45574531     0.18600
C427        C  0.70605800  0.73826720  0.17765484    -0.07200
C428        C  0.69485727  0.70503643  0.16375570    -0.18300
C429        C  0.66724589  0.70376759  0.13842292     0.10000
C430        C  0.64944036  0.73666568  0.12701289    -0.07100
C431        C  0.66192816  0.77006559  0.13974499    -0.18300
C432        C  0.69019165  0.77128413  0.16416730     0.10000
S433        S  0.65687580  0.65998510  0.11993975    -0.33300
S434        S  0.70564748  0.81604228  0.17566639    -0.33300
H435        H  0.74169505  0.80593096  0.17718442     0.28100
H436        H  0.67844487  0.63793004  0.14299237     0.28000
H437        H  0.70755593  0.67977717  0.17323832     0.18600
H438        H  0.64952216  0.79566768  0.13071478     0.18600
C439        C  0.81268679  0.68260214  0.23510690    -0.07200
C440        C  0.82909720  0.67527560  0.20174084    -0.18300
C441        C  0.85907174  0.65224833  0.19969129     0.10000
C442        C  0.87364480  0.63621623  0.23213050    -0.07100
C443        C  0.85642863  0.64309455  0.26540634    -0.18300
C444        C  0.82613630  0.66527486  0.26717904     0.10000
S445        S  0.87712435  0.64331947  0.15521174    -0.33300
S446        S  0.80507964  0.66878160  0.31114776    -0.33300
H447        H  0.77024083  0.66871931  0.29773012     0.28100
H448        H  0.85372891  0.66571538  0.13456273     0.28000
H449        H  0.81859938  0.68821159  0.17709564     0.18600
H450        H  0.86632643  0.63078463  0.29064631     0.18600
C451        C  0.75149051  0.78596812  0.29261740    -0.07200
C452        C  0.78152484  0.79009105  0.31459249    -0.18300
C453        C  0.78224597  0.81538581  0.34234680     0.10000
C454        C  0.75236951  0.83793612  0.34836147    -0.07100
C455        C  0.72197709  0.83325005  0.32732236    -0.18300
C456        C  0.72094636  0.80762252  0.29981421     0.10000
S457        S  0.82083486  0.81698277  0.37106645    -0.33300
S458        S  0.67972059  0.80241068  0.27575527    -0.33300
H459        H  0.66087990  0.83124683  0.29138094     0.28100
H460        H  0.84035251  0.78892810  0.35490698     0.28000
H461        H  0.80483335  0.77346791  0.30996068     0.18600
H462        H  0.69887255  0.85005867  0.33241902     0.18600
C463        C  0.87648076  0.02600764  0.56367059    -0.07200
C464        C  0.87878557  0.05996914  0.57977742    -0.18300
C465        C  0.84830031  0.07876837  0.59128416     0.10000
C466        C  0.81423081  0.06268232  0.58735591    -0.07100
C467        C  0.81237595  0.02763831  0.57273005    -0.18300
C468        C  0.84298718  0.00944042  0.56057124     0.10000
S469        S  0.85381152  0.12474882  0.60707878    -0.33300
S470        S  0.83908416  0.96593829  0.53921385    -0.33300
H471        H  0.80182127  0.96382598  0.54060610     0.28100
H472        H  0.89113043  0.12495631  0.60775719     0.28000
H473        H  0.90454802  0.07285092  0.58105026     0.18600
H474        H  0.78672775  0.01484259  0.56991752     0.18600
C475        C  0.75327541  0.20881900  0.70997655    -0.07200
C476        C  0.74913586  0.17173422  0.72105955    -0.18300
C477        C  0.74762538  0.14423086  0.69571496     0.10000
C478        C  0.75002375  0.15390405  0.65823083    -0.07100
C479        C  0.75420274  0.19091492  0.64699690    -0.18300
C480        C  0.75599282  0.21851106  0.67249384     0.10000
S481        S  0.74328815  0.09738507  0.71314252    -0.33300
S482        S  0.76021500  0.26598973  0.65694280    -0.33300
H483        H  0.76098094  0.25978186  0.61947439     0.28100
H484        H  0.72696354  0.08326811  0.68259315     0.28000
H485        H  0.74727127  0.16408391  0.74979367     0.18600
H486        H  0.75619415  0.19806795  0.61818562     0.18600
C487        C  0.63990311  0.25860941  0.86862552    -0.07200
C488        C  0.65290780  0.22582683  0.85471074    -0.18300
C489        C  0.68189399  0.22529604  0.83055434     0.10000
C490        C  0.69864829  0.25865422  0.81918383    -0.07100
C491        C  0.68660528  0.29143161  0.83401652    -0.18300
C492        C  0.65767105  0.29185232  0.85863968     0.10000
S493        S  0.69807735  0.18126037  0.81639375    -0.33300
S494        S  0.64502684  0.33480713  0.87799433    -0.33300
H495        H  0.67235374  0.35639945  0.86203164     0.28100
H496        H  0.67016637  0.15961778  0.83109259     0.28000
H497        H  0.64016224  0.20020773  0.86274294     0.18600
H498        H  0.69960311  0.31693253  0.82578849     0.18600
C499        C  0.81097240  0.31308983  0.76724716    -0.07200
C500        C  0.83285801  0.31724804  0.73598936    -0.18300
C501        C  0.86266720  0.34014983  0.73476947     0.10000
C502        C  0.87088843  0.36096739  0.76505308    -0.07100
C503        C  0.84920305  0.35722644  0.79625700    -0.18300
C504        C  0.81969137  0.33353771  0.79799787     0.10000
S505        S  0.89011533  0.33985301  0.69433126    -0.33300
S506        S  0.79457769  0.32969973  0.84015432    -0.33300
H507        H  0.81674685  0.35138330  0.86099126     0.28100
H508        H  0.92246693  0.34121567  0.71299397     0.28000
H509        H  0.82726018  0.30190650  0.71214895     0.18600
H510        H  0.85526555  0.37336575  0.81936867     0.18600
C511        C  0.30471161  0.24208222  0.18865093    -0.07200
C512        C  0.31326733  0.27528769  0.16959536    -0.18300
C513        C  0.33951816  0.27713699  0.14193843     0.10000
C514        C  0.35865183  0.24509482  0.13320298    -0.07100
C515        C  0.34918356  0.21176218  0.15135913    -0.18300
C516        C  0.32239709  0.20967190  0.17832773     0.10000
S517        S  0.34683914  0.32030212  0.11702173    -0.33300
S518        S  0.31031311  0.16495344  0.19777738    -0.33300
H519        H  0.33251382  0.14385725  0.17582475     0.28100
H520        H  0.31947278  0.34024554  0.13347567     0.28000
H521        H  0.29950109  0.30012997  0.17665537     0.18600
H522        H  0.36319001  0.18705698  0.14465974     0.18600
C523        C  0.14745035  0.35537339  0.24912864    -0.07200
C524        C  0.16931174  0.34787364  0.27943587    -0.18300
C525        C  0.19578219  0.32073381  0.27934480     0.10000
C526        C  0.20114824  0.30014784  0.24815838    -0.07100
C527        C  0.17987647  0.30748759  0.21765855    -0.18300
C528        C  0.15283463  0.33431273  0.21774965     0.10000
S529        S  0.22371943  0.31389889  0.31875368    -0.33300
S530        S  0.12530701  0.33971880  0.17782784    -0.33300
H531        H  0.14133570  0.31241477  0.15729092     0.28100
H532        H  0.20898388  0.34179982  0.33948885     0.28000
H533        H  0.16592600  0.36354297  0.30353543     0.18600
H534        H  0.18403053  0.29136723  0.19394159     0.18600
C535        C  0.12253690  0.01201299  0.45520097    -0.07200
C536        C  0.12348471  0.04852110  0.44117175    -0.18300
C537        C  0.15523428  0.06821560  0.43660228     0.10000
C538        C  0.18818220  0.05073468  0.44429554    -0.07100
C539        C  0.18761646  0.01405774  0.45804493    -0.18300
C540        C  0.15537810  0.99467592  0.46393147     0.10000
S541        S  0.15231650  0.11678727  0.42416182    -0.33300
S542        S  0.15701486  0.94833830  0.48329656    -0.33300
H543        H  0.19304679  0.94844978  0.49296637     0.28100
H544        H  0.11546743  0.11879414  0.41867026     0.28000
H545        H  0.09877320  0.06262715  0.43529922     0.18600
H546        H  0.21258411  0.00044154  0.46400958     0.18600
C547        C  0.25585460  0.18995588  0.30553113    -0.07200
C548        C  0.28144671  0.19311131  0.33259160    -0.18300
C549        C  0.28137705  0.16971410  0.36397030     0.10000
C550        C  0.25584971  0.14117498  0.36811451    -0.07100
C551        C  0.23030999  0.13823471  0.34065019    -0.18300
C552        C  0.23002557  0.16211931  0.30972347     0.10000
S553        S  0.31297184  0.17981033  0.39855126    -0.33300
S554        S  0.19593344  0.15556845  0.27655217    -0.33300
H555        H  0.21553605  0.16900911  0.24615254     0.28100
H556        H  0.28819315  0.17580712  0.42731775     0.28000
H557        H  0.30077544  0.21504898  0.32998641     0.18600
H558        H  0.21047282  0.11679054  0.34292746     0.18600
C559        C  0.96962170  0.41783343  0.83000520    -0.07200
C560        C  0.00478987  0.43074519  0.82720584    -0.18300
C561        C  0.02504658  0.43747238  0.85825405     0.10000
C562        C  0.01013530  0.43063365  0.89342638    -0.07100
C563        C  0.97632373  0.41444314  0.89599397    -0.18300
C564        C  0.95549782  0.40927673  0.86525999     0.10000
S565        S  0.06968937  0.45494856  0.85227029    -0.33300
S566        S  0.90979749  0.39539157  0.87265100    -0.33300
H567        H  0.90845110  0.39837997  0.91063027     0.28100
H568        H  0.06924885  0.45938542  0.81411517     0.28000
H569        H  0.01624394  0.43632467  0.80047852     0.18600
H570        H  0.96471175  0.40855762  0.92258084     0.18600
C571        C  0.98131492  0.58344760  0.17306541    -0.07200
C572        C  0.97254707  0.60354330  0.14081178    -0.18300
C573        C  0.98915723  0.59677620  0.10754431     0.10000
C574        C  0.01498700  0.56868327  0.10583219    -0.07100
C575        C  0.02766448  0.55283973  0.13854767    -0.18300
C576        C  0.01113899  0.55932674  0.17192159     0.10000
S577        S  0.97500329  0.62381292  0.06809249    -0.33300
S578        S  0.02774701  0.53366153  0.21119398    -0.33300
H579        H  0.06048732  0.52296900  0.19617113     0.28100
H580        H  0.00736364  0.62044718  0.04905866     0.28000
H581        H  0.95161937  0.62389501  0.14095801     0.18600
H582        H  0.04815354  0.53199824  0.13769999     0.18600
C583        C  0.05884668  0.43794993  0.19089487    -0.07200
C584        C  0.02183450  0.44333860  0.19059564    -0.18300
C585        C  0.00342593  0.44928592  0.15748582     0.10000
C586        C  0.02210695  0.44758177  0.12393262    -0.07100
C587        C  0.05904882  0.44311542  0.12464511    -0.18300
C588        C  0.07750484  0.43985726  0.15730437     0.10000
S589        S  0.95622539  0.45808422  0.15840977    -0.33300
S590        S  0.12531325  0.44034223  0.15407338    -0.33300
H591        H  0.13038609  0.45796239  0.18690760     0.28100
H592        H  0.95307396  0.46155112  0.19623737     0.28000
H593        H  0.00734705  0.44224804  0.21617221     0.18600
H594        H  0.07415184  0.44420661  0.09939932     0.18600
C595        C  0.19319849  0.58470767  0.06403281    -0.07200
C596        C  0.19449321  0.57659004  0.02699406    -0.18300
C597        C  0.16371316  0.56742205  0.00812361     0.10000
C598        C  0.13051515  0.56640428  0.02635162    -0.07100
C599        C  0.12904271  0.57551887  0.06299082    -0.18300
C600        C  0.15974194  0.58428432  0.08213097     0.10000
S601        S  0.16900875  0.55368441  0.96189787    -0.33300
S602        S  0.15587438  0.59042719  0.13059221    -0.33300
H603        H  0.11879789  0.58672823  0.13362356     0.28100
H604        H  0.13535868  0.56573091  0.95036149     0.28000
H605        H  0.21980182  0.57668077  0.01274250     0.18600
H606        H  0.10392552  0.57281410  0.07742478     0.18600
C607        C  0.89574626  0.43362698  0.00737977    -0.07200
C608        C  0.86575437  0.43539445  0.98495700    -0.18300
C609        C  0.83165295  0.42623829  0.99891989     0.10000
C610        C  0.82647680  0.41937016  0.03674203    -0.07100
C611        C  0.85680884  0.41507392  0.05826841    -0.18300
C612        C  0.89108361  0.41980119  0.04383004     0.10000
S613        S  0.79647354  0.41832583  0.96787063    -0.33300
S614        S  0.92814497  0.40673885  0.07265016    -0.33300
H615        H  0.90855263  0.39085357  0.10196571     0.28100
H616        H  0.81454095  0.43043021  0.93595539     0.28000
H617        H  0.86901322  0.44386797  0.95657012     0.18600
H618        H  0.85374794  0.40794166  0.08688804     0.18600
C619        C  0.94324452  0.18318998  0.42818458    -0.07200
C620        C  0.97885968  0.18570797  0.43945653    -0.18300
C621        C  0.99983919  0.15391378  0.44698134     0.10000
C622        C  0.98536164  0.11865828  0.44226875    -0.07100
C623        C  0.94998269  0.11654584  0.43061151    -0.18300
C624        C  0.92865288  0.14772919  0.42473149     0.10000
S625        S  0.04498163  0.15866883  0.46199023    -0.33300
S626        S  0.88183153  0.14096701  0.41636514    -0.33300
H627        H  0.88162540  0.10235286  0.41844761     0.28100
H628        H  0.04426671  0.19703359  0.46484770     0.28000
H629        H  0.99023715  0.21263527  0.44239837     0.18600
H630        H  0.93801585  0.08986881  0.42806648     0.18600
C631        C  0.69013302  0.18985233  0.24654837    -0.07200
C632        C  0.67826991  0.17380394  0.27983355    -0.18300
C633        C  0.65242987  0.14616431  0.28160142     0.10000
C634        C  0.63624785  0.13458574  0.24930762    -0.07100
C635        C  0.64879200  0.14997761  0.21588892    -0.18300
C636        C  0.67566340  0.17689792  0.21404260     0.10000
S637        S  0.64335005  0.12553879  0.32604603    -0.33300
S638        S  0.69213484  0.19287172  0.16985439    -0.33300
H639        H  0.67265027  0.16866300  0.14901769     0.28100
H640        H  0.64477818  0.08950195  0.31379486     0.28000
H641        H  0.68957544  0.18256927  0.30499246     0.18600
H642        H  0.63726675  0.14111187  0.19097314     0.18600
C643        C  0.75552873  0.35842230  0.13560271    -0.07200
C644        C  0.72183936  0.34408106  0.14497553    -0.18300
C645        C  0.71712982  0.31714079  0.17314848     0.10000
C646        C  0.74700154  0.30296283  0.19215121    -0.07100
C647        C  0.78052635  0.31799026  0.18350315    -0.18300
C648        C  0.78513472  0.34570789  0.15610747     0.10000
S649        S  0.67255827  0.30278461  0.18539805    -0.33300
S650        S  0.82873018  0.36562104  0.14954684    -0.33300
H651        H  0.84625657  0.34485026  0.17704579     0.28100
H652        H  0.65457257  0.33015457  0.16463830     0.28000
H653        H  0.69890981  0.35388317  0.12993883     0.18600
H654        H  0.80343015  0.30787279  0.19838377     0.18600
C655        C  0.79525247  0.24359758  0.30388542    -0.07200
C656        C  0.78470943  0.24583131  0.34044351    -0.18300
C657        C  0.80997923  0.24684995  0.36833116     0.10000
C658        C  0.84645547  0.24458005  0.35960694    -0.07100
C659        C  0.85693186  0.24142571  0.32320307    -0.18300
C660        C  0.83178431  0.24136921  0.29524108     0.10000
S661        S  0.79561289  0.25021899  0.41504803    -0.33300
S662        S  0.84645758  0.23742899  0.24866127    -0.33300
H663        H  0.88307582  0.23615614  0.25567664     0.28100
H664        H  0.75897143  0.25166676  0.40817070     0.28000
H665        H  0.75668555  0.24753816  0.34696551     0.18600
H666        H  0.88495665  0.23960177  0.31671356     0.18600
C667        C  0.06240181  0.55974389  0.80764028    -0.07200
C668        C  0.02689130  0.54723208  0.80821506    -0.18300
C669        C  0.00758678  0.54080785  0.84122662     0.10000
C670        C  0.02355948  0.54749614  0.87503473    -0.07100
C671        C  0.05902737  0.55965812  0.87420590    -0.18300
C672        C  0.07860209  0.56495857  0.84172760     0.10000
S673        S  0.96264290  0.52464637  0.83829782    -0.33300
S674        S  0.12545359  0.57480329  0.84544058    -0.33300
H675        H  0.12463634  0.58638551  0.88142136     0.28100
H676        H  0.94985764  0.54392642  0.86806679     0.28000
H677        H  0.01369032  0.54323777  0.78274381     0.18600
H678        H  0.07254757  0.56318386  0.89961857     0.18600
C679        C  0.18021273  0.96688232  0.57967551    -0.07200
C680        C  0.17902665  0.00323832  0.56479786    -0.18300
C681        C  0.14647677  0.02120475  0.55617963     0.10000
C682        C  0.11385256  0.00243122  0.56211871    -0.07100
C683        C  0.11518734  0.96702540  0.57885607    -0.18300
C684        C  0.14729087  0.94902735  0.58726630     0.10000
S685        S  0.14732895  0.06757847  0.53686295    -0.33300
S686        S  0.14473457  0.90168917  0.60414266    -0.33300
H687        H  0.10853322  0.90158175  0.61389072     0.28100
H688        H  0.18442605  0.07081239  0.53367607     0.28000
H689        H  0.20379578  0.01755010  0.55960643     0.18600
H690        H  0.09065026  0.95213642  0.58351263     0.18600
C691        C  0.15430245  0.63443568  0.74110488    -0.07200
C692        C  0.16370150  0.64798776  0.77506680    -0.18300
C693        C  0.18976850  0.67519060  0.77846269     0.10000
C694        C  0.20704590  0.69032922  0.74710269    -0.07100
C695        C  0.19802784  0.67702923  0.71315818    -0.18300
C696        C  0.17247022  0.64923246  0.70962149     0.10000
S697        S  0.19889709  0.69186251  0.82295741    -0.33300
S698        S  0.16414897  0.63374342  0.66443113    -0.33300
H699        H  0.18681702  0.65826633  0.64501069     0.28100
H700        H  0.17950959  0.66502268  0.84323543     0.28000
H701        H  0.15026903  0.63756092  0.79939488     0.18600
H702        H  0.21158607  0.68832664  0.68917789     0.18600
C703        C  0.24986718  0.87169759  0.64800321    -0.07200
C704        C  0.23763737  0.83738542  0.63781070    -0.18300
C705        C  0.24020688  0.80586175  0.66122741     0.10000
C706        C  0.25499776  0.80856938  0.69643334    -0.07100
C707        C  0.26743722  0.84315600  0.70633592    -0.18300
C708        C  0.26494371  0.87450434  0.68278619     0.10000
S709        S  0.22673046  0.76223330  0.64428433    -0.33300
S710        S  0.28153301  0.91716544  0.69900015    -0.33300
H711        H  0.26172640  0.94093164  0.67596044     0.28100
H712        H  0.21196995  0.77584429  0.61141986     0.28000
H713        H  0.22685290  0.83519283  0.61082582     0.18600
H714        H  0.27874723  0.84605703  0.73301164     0.18600
C715        C  0.31224639  0.74677940  0.80474788    -0.07200
C716        C  0.33136838  0.77933906  0.81006939    -0.18300
C717        C  0.35779895  0.78145061  0.83683181     0.10000
C718        C  0.36562567  0.75039842  0.85975295    -0.07100
C719        C  0.34717183  0.71768750  0.85423285    -0.18300
C720        C  0.32087694  0.71530691  0.82732643     0.10000
S721        S  0.38266478  0.82350330  0.83992505    -0.33300
S722        S  0.30000193  0.67122481  0.82201596    -0.33300
H723        H  0.31726514  0.65172807  0.85054908     0.28100
H724        H  0.36772158  0.84241171  0.80964423     0.28000
H725        H  0.32559150  0.80354994  0.79312052     0.18600
H726        H  0.35338220  0.69374192  0.87142136     0.18600
C727        C  0.55375082  0.87706835  0.00894281    -0.07200
C728        C  0.53916533  0.84459292  0.99568045    -0.18300
C729        C  0.54865939  0.80931661  0.01006053     0.10000
C730        C  0.57145666  0.80568363  0.04050464    -0.07100
C731        C  0.58765391  0.83800582  0.05199183    -0.18300
C732        C  0.58021035  0.87284339  0.03600245     0.10000
S733        S  0.53251971  0.77031960  0.98679612    -0.33300
S734        S  0.60600996  0.91055196  0.05161461    -0.33300
H735        H  0.60967508  0.92767555  0.01675583     0.28100
H736        H  0.56443805  0.75036424  0.98999930     0.28000
H737        H  0.51988869  0.84655641  0.97403689     0.18600
H738        H  0.60657786  0.83642124  0.07396435     0.18600
C739        C  0.43484133  0.88298034  0.99541468    -0.07200
C740        C  0.44558725  0.84927823  0.01169138    -0.18300
C741        C  0.43934295  0.81548143  0.99530909     0.10000
C742        C  0.42404865  0.81464716  0.96018720    -0.07100
C743        C  0.41144489  0.84824467  0.94501622    -0.18300
C744        C  0.41554643  0.88178462  0.96231459     0.10000
S745        S  0.44770887  0.77404514  0.02176518    -0.33300
S746        S  0.39582000  0.92242154  0.94081892    -0.33300
H747        H  0.37687662  0.90499108  0.91372194     0.28100
H748        H  0.46733771  0.78965907  0.04948819     0.28000
H749        H  0.45893830  0.84943284  0.03758521     0.18600
H750        H  0.39856962  0.84845448  0.91888862     0.18600
C751        C  0.56374214  0.04267889  0.18647181    -0.07200
C752        C  0.54994118  0.00673318  0.18995536    -0.18300
C753        C  0.54146062  0.98625147  0.15931360     0.10000
C754        C  0.54742571  0.00169437  0.12382344    -0.07100
C755        C  0.56306931  0.03683964  0.12065250    -0.18300
C756        C  0.57054138  0.05755487  0.15092673     0.10000
S757        S  0.52252044  0.94102076  0.16620843    -0.33300
S758        S  0.58539617  0.10439828  0.14282714    -0.33300
H759        H  0.59295124  0.10241180  0.10544729     0.28100
H760        H  0.51837627  0.94184446  0.20419138     0.28000
H761        H  0.54569794  0.99467609  0.21686129     0.18600
H762        H  0.56773548  0.04942947  0.09389521     0.18600
C763        C  0.43897235  0.99875829  0.12139112    -0.07200
C764        C  0.45188085  0.01469045  0.15273199    -0.18300
C765        C  0.44674475  0.99785245  0.18766848     0.10000
C766        C  0.42950011  0.96338308  0.19163611    -0.07100
C767        C  0.41392440  0.94951116  0.16035892    -0.18300
C768        C  0.41758650  0.96705154  0.12597465     0.10000
S769        S  0.46128302  0.02155082  0.22651529    -0.33300
S770        S  0.39435546  0.94703773  0.08905258    -0.33300
H771        H  0.38882475  0.98064844  0.06964056     0.28100
H772        H  0.47793486  0.05121585  0.20760557     0.28000
H773        H  0.46758005  0.03946492  0.14968146     0.18600
H774        H  0.39893085  0.92423366  0.16226113     0.18600
C775        C  0.42843297  0.17841118  0.04168425    -0.07200
C776        C  0.44455544  0.18035841  0.00688666    -0.18300
C777        C  0.45168585  0.14850106  0.98721273     0.10000
C778        C  0.44234535  0.11334987  0.00236920    -0.07100
C779        C  0.42441648  0.11190169  0.03614890    -0.18300
C780        C  0.41850273  0.14321153  0.05632481     0.10000
S781        S  0.47194823  0.15345090  0.94258521    -0.33300
S782        S  0.40169212  0.13637953  0.10236499    -0.33300
H783        H  0.39999873  0.09780221  0.10367148     0.28100
H784        H  0.48009371  0.19099361  0.94386372     0.28000
H785        H  0.45169363  0.20701052  0.99508272     0.18600
H786        H  0.41705767  0.08547337  0.04832521     0.18600
C787        C  0.56463724  0.18442739  0.95351664    -0.07200
C788        C  0.55292278  0.18240916  0.99000917    -0.18300
C789        C  0.54770581  0.14823335  0.00919884     0.10000
C790        C  0.55469595  0.11496220  0.99175822    -0.07100
C791        C  0.56706945  0.11732240  0.95551479    -0.18300
C792        C  0.57137022  0.15110210  0.93617883     0.10000
S793        S  0.53260296  0.14751791  0.05595130    -0.33300
S794        S  0.58210299  0.15073387  0.88813470    -0.33300
H795        H  0.58758593  0.11270113  0.88597711     0.28100
H796        H  0.53209749  0.18574014  0.05964838     0.28000
H797        H  0.54810622  0.20769201  0.00351460     0.18600
H798        H  0.57140446  0.09229850  0.94130253     0.18600
C799        C  0.03373947  0.17242381  0.57587690    -0.07200
C800        C  0.00175007  0.17586987  0.55652631    -0.18300
C801        C  0.98075057  0.14516914  0.54968509     0.10000
C802        C  0.99218942  0.10965935  0.56168471    -0.07100
C803        C  0.02186174  0.10703111  0.58458797    -0.18300
C804        C  0.04340120  0.13729315  0.59068919     0.10000
S805        S  0.94003223  0.15345277  0.52537431    -0.33300
S806        S  0.08504866  0.12887125  0.61380204    -0.33300
H807        H  0.08325385  0.09033831  0.61709188     0.28100
H808        H  0.92190114  0.12344859  0.54184457     0.28000
H809        H  0.99320326  0.20268864  0.54612076     0.18600
H810        H  0.03039726  0.08030333  0.59505726     0.18600
C811        C  0.42652691  0.05479032  0.80332746    -0.07200
C812        C  0.41156868  0.07046935  0.83450642    -0.18300
C813        C  0.41811386  0.05583523  0.86963560     0.10000
C814        C  0.43981389  0.02473707  0.87403400    -0.07100
C815        C  0.45256749  0.00725456  0.84327266    -0.18300
C816        C  0.44581716  0.02152206  0.80795917     0.10000
S817        S  0.40104302  0.07844452  0.90892739    -0.33300
S818        S  0.46195279  0.99664295  0.76972427    -0.33300
H819        H  0.47763326  0.96715337  0.78963874     0.28100
H820        H  0.38050756  0.10498564  0.88979030     0.28000
H821        H  0.39608386  0.09542721  0.83168606     0.18600
H822        H  0.46960227  0.98343684  0.84713416     0.18600
C823        C  0.19679258  0.40980194  0.94494585    -0.07200
C824        C  0.16453479  0.39630377  0.93169181    -0.18300
C825        C  0.13187671  0.40448340  0.94809697     0.10000
C826        C  0.13104946  0.42696865  0.97810293    -0.07100
C827        C  0.16313766  0.43684429  0.99403373    -0.18300
C828        C  0.19605920  0.42781894  0.97834400     0.10000
S829        S  0.09113639  0.38819677  0.92927110    -0.33300
S830        S  0.23633611  0.43948471  0.00145926    -0.33300
H831        H  0.22018802  0.45607349  0.03125464     0.28100
H832        H  0.10649189  0.36995718  0.90005613     0.28000
H833        H  0.16452293  0.38101673  0.90713465     0.18600
H834        H  0.16226308  0.45385109  0.01745999     0.18600
C835        C  0.18390728  0.23875666  0.69019720    -0.07200
C836        C  0.16412402  0.27081535  0.68191328    -0.18300
C837        C  0.13544587  0.27078845  0.65791693     0.10000
C838        C  0.12662411  0.23811385  0.64086765    -0.07100
C839        C  0.14520020  0.20573695  0.65032146    -0.18300
C840        C  0.17325201  0.20544867  0.67515102     0.10000
S841        S  0.10959202  0.31229138  0.65047633    -0.33300
S842        S  0.19383005  0.16204275  0.68818409    -0.33300
H843        H  0.17164197  0.13948059  0.66828963     0.28100
H844        H  0.12739021  0.33377206  0.67537172     0.28000
H845        H  0.17150767  0.29628421  0.69383596     0.18600
H846        H  0.13825239  0.18066901  0.63748684     0.18600
C847        C  0.30473977  0.19830804  0.72928386    -0.07200
C848        C  0.32804708  0.19693893  0.75903998    -0.18300
C849        C  0.35755720  0.17355249  0.76030394     0.10000
C850        C  0.36386935  0.14994307  0.73155800    -0.07100
C851        C  0.34153695  0.15182395  0.70126841    -0.18300
C852        C  0.31248226  0.17598528  0.69950643     0.10000
S853        S  0.38773437  0.17524867  0.79816497    -0.33300
S854        S  0.28757157  0.17756388  0.65796506    -0.33300
H855        H  0.28626327  0.21616841  0.65526089     0.28100
H856        H  0.37015673  0.20300455  0.81680722     0.28000
H857        H  0.32306865  0.21410875  0.78181494     0.18600
H858        H  0.34658405  0.13408211  0.67888237     0.18600
C859        C  0.24757409  0.30290869  0.78625263    -0.07200
C860        C  0.28065594  0.30897983  0.80260339    -0.18300
C861        C  0.28477730  0.33442657  0.82971293     0.10000
C862        C  0.25528030  0.35528244  0.84060322    -0.07100
C863        C  0.22239373  0.34998454  0.82404428    -0.18300
C864        C  0.21797777  0.32417748  0.79721401     0.10000
S865        S  0.32725477  0.33787347  0.85176985    -0.33300
S866        S  0.17399875  0.31852462  0.77891706    -0.33300
H867        H  0.15689991  0.34661402  0.79751489     0.28100
H868        H  0.34456516  0.30939089  0.83394701     0.28000
H869        H  0.30359470  0.29324458  0.79458329     0.18600
H870        H  0.19982732  0.36603673  0.83261544     0.18600
C871        C  0.89155422  0.54807517  0.98572158    -0.07200
C872        C  0.86142323  0.53092406  0.00200627    -0.18300
C873        C  0.82731662  0.53428929  0.98625445     0.10000
C874        C  0.82291496  0.55494067  0.95309435    -0.07100
C875        C  0.85318734  0.57324626  0.93829226    -0.18300
C876        C  0.88663055  0.57057632  0.95425345     0.10000
S877        S  0.79023549  0.51201317  0.00880878    -0.33300
S878        S  0.92212812  0.59698501  0.93299816    -0.33300
H879        H  0.93917849  0.60411884  0.96582277     0.28100
H880        H  0.80770063  0.50182573  0.04132319     0.28000
H881        H  0.86490063  0.51333620  0.02619175     0.18600
H882        H  0.85126481  0.59023433  0.91363528     0.18600
C883        C  0.96844084  0.81259781  0.57964970    -0.07200
C884        C  0.96063080  0.84335070  0.60032959    -0.18300
C885        C  0.97621985  0.87778850  0.59283793     0.10000
C886        C  0.00010289  0.88262215  0.56306073    -0.07100
C887        C  0.01090514  0.85126475  0.54476279    -0.18300
C888        C  0.99614821  0.81630566  0.55325358     0.10000
S889        S  0.96489390  0.91511568  0.62183218    -0.33300
S890        S  0.01373932  0.77723603  0.53042234    -0.33300
H891        H  0.04133301  0.79567827  0.51128016     0.28100
H892        H  0.93687142  0.89762058  0.64117002     0.28000
H893        H  0.94159782  0.84075440  0.62242041     0.18600
H894        H  0.02994643  0.85439840  0.52263813     0.18600
C895        C  0.75476156  0.68178316  0.80323304    -0.07200
C896        C  0.78689472  0.66286309  0.80981626    -0.18300
C897        C  0.78919407  0.63332250  0.83543329     0.10000
C898        C  0.75880876  0.62282078  0.85617125    -0.07100
C899        C  0.72673876  0.64149785  0.84961157    -0.18300
C900        C  0.72411170  0.67000214  0.82311407     0.10000
S901        S  0.83047026  0.60803751  0.83926647    -0.33300
S902        S  0.68023863  0.68805414  0.81502228    -0.33300
H903        H  0.68298892  0.68578977  0.77701008     0.28100
H904        H  0.85039163  0.62980301  0.81409618     0.28000
H905        H  0.81044932  0.67100554  0.79451824     0.18600
H906        H  0.70311598  0.63343126  0.86495303     0.18600
C907        C  0.81084900  0.74418802  0.69614882    -0.07200
C908        C  0.82332455  0.77875222  0.68344237    -0.18300
C909        C  0.85109058  0.78224852  0.65764474     0.10000
C910        C  0.86720885  0.75018626  0.64433429    -0.07100
C911        C  0.85433051  0.71571729  0.65712724    -0.18300
C912        C  0.82633768  0.71228436  0.68227501     0.10000
S913        S  0.86410030  0.82776058  0.64128832    -0.33300
S914        S  0.80943875  0.66687555  0.69433678    -0.33300
H915        H  0.83381500  0.64671553  0.67389641     0.28100
H916        H  0.83998420  0.84763283  0.66231799     0.28000
H917        H  0.81126880  0.80316364  0.69396488     0.18600
H918        H  0.86609202  0.69096294  0.64712617     0.18600
C919        C  0.56345202  0.96613044  0.87984208    -0.07200
C920        C  0.55797771  0.98665039  0.84716818    -0.18300
C921        C  0.56392397  0.97124288  0.81315827     0.10000
C922        C  0.57503716  0.93422469  0.81183656    -0.07100
C923        C  0.58273574  0.91475882  0.84473719    -0.18300
C924        C  0.57696069  0.93024245  0.87848074     0.10000
S925        S  0.55783778  0.99926561  0.77203212    -0.33300
S926        S  0.58497197  0.90337297  0.91994486    -0.33300
H927        H  0.59343204  0.87019855  0.90365965     0.28100
H928        H  0.54497244  0.03074278  0.78871561     0.28000
H929        H  0.54684615  0.01400830  0.84838362     0.18600
H930        H  0.59202432  0.88666069  0.84412625     0.18600
C931        C  0.63868067  0.84099932  0.74553910    -0.07200
C932        C  0.66617582  0.84628141  0.72007514    -0.18300
C933        C  0.69625886  0.82337762  0.72031320     0.10000
C934        C  0.69842144  0.79328596  0.74626846    -0.07100
C935        C  0.67027155  0.78828926  0.77156920    -0.18300
C936        C  0.64069459  0.81153444  0.77143489     0.10000
S937        S  0.73133617  0.83450144  0.68776345    -0.33300
S938        S  0.60612151  0.80170278  0.80471656    -0.33300
H939        H  0.57794636  0.81531023  0.78324478     0.28100
H940        H  0.71848835  0.86911818  0.67561967     0.28000
H941        H  0.66442560  0.86928448  0.70055482     0.18600
H942        H  0.67094304  0.76591379  0.79180375     0.18600
C943        C  0.49457435  0.37743531  0.05413043    -0.07200
C944        C  0.50899358  0.34439135  0.04183085    -0.18300
C945        C  0.49332685  0.30985827  0.05102095     0.10000
C946        C  0.46058642  0.30809893  0.07048073    -0.07100
C947        C  0.44790374  0.34083585  0.08489553    -0.18300
C948        C  0.46477435  0.37479928  0.07820325     0.10000
S949        S  0.51708036  0.26857911  0.04037600    -0.33300
S950        S  0.44659121  0.41414440  0.10056522    -0.33300
H951        H  0.42257106  0.39523019  0.12404398     0.28100
H952        H  0.54477380  0.28557730  0.02009693     0.28000
H953        H  0.53262938  0.34564385  0.02487385     0.18600
H954        H  0.42396170  0.34015409  0.10128703     0.18600
C955        C  0.53117611  0.31571494  0.91841231    -0.07200
C956        C  0.54157307  0.34803710  0.89862621    -0.18300
C957        C  0.52516735  0.38218203  0.90369738     0.10000
C958        C  0.49850870  0.38518982  0.93080080    -0.07100
C959        C  0.48482041  0.35230426  0.94694665    -0.18300
C960        C  0.49993769  0.31768002  0.94008811     0.10000
S961        S  0.53925760  0.42150418  0.87553868    -0.33300
S962        S  0.47781990  0.27673954  0.95769928    -0.33300
H963        H  0.45103493  0.29420761  0.97755845     0.28100
H964        H  0.56289757  0.40289608  0.85287711     0.28000
H965        H  0.56348749  0.34698872  0.87953816     0.18600
H966        H  0.46301248  0.35379302  0.96618966     0.18600
C967        C  0.69726724  0.45119490  0.05566012    -0.07200
C968        C  0.66838741  0.42842116  0.04960066    -0.18300
C969        C  0.63414776  0.44226264  0.04313649     0.10000
C970        C  0.62800871  0.48094430  0.04003698    -0.07100
C971        C  0.65720833  0.50399466  0.04612249    -0.18300
C972        C  0.69108621  0.48962543  0.05544598     0.10000
S973        S  0.59958265  0.40871136  0.03875160    -0.33300
S974        S  0.72375380  0.52170588  0.06991288    -0.33300
H975        H  0.74494180  0.49633685  0.08969972     0.28100
H976        H  0.61755075  0.37823965  0.05458624     0.28000
H977        H  0.67272512  0.39899848  0.05055479     0.18600
H978        H  0.65336145  0.53348276  0.04488858     0.18600
C979        C  0.69293503  0.52689919  0.92491108    -0.07200
C980        C  0.66243479  0.54556555  0.91204779    -0.18300
C981        C  0.62819862  0.53086442  0.91622075     0.10000
C982        C  0.62301373  0.49643798  0.93485007    -0.07100
C983        C  0.65334841  0.47699088  0.94669437    -0.18300
C984        C  0.68780892  0.49149741  0.94147476     0.10000
S985        S  0.59176360  0.55653221  0.89623305    -0.33300
S986        S  0.72376511  0.46273944  0.95564446    -0.33300
H987        H  0.74459328  0.47118032  0.92445586     0.28100
H988        H  0.60946275  0.59022105  0.89036180     0.28000
H989        H  0.66520479  0.57230661  0.89845380     0.18600
H990        H  0.65023830  0.45059009  0.96101693     0.18600
C991        C  0.51533483  0.60342892  0.06377400    -0.07200
C992        C  0.49442548  0.63552408  0.06555864    -0.18300
C993        C  0.50949477  0.66965790  0.07416977     0.10000
C994        C  0.54665783  0.67265770  0.07792483    -0.07100
C995        C  0.56623350  0.63987127  0.08079990    -0.18300
C996        C  0.55071433  0.60548755  0.07645222     0.10000
S997        S  0.48016882  0.70723413  0.08346854    -0.33300
S998        S  0.57686515  0.56515008  0.08839721    -0.33300
H999        H  0.60563058  0.58306984  0.10397769     0.28100
H1000       H  0.50286865  0.72427697  0.10768063     0.28000
H1001       H  0.46634652  0.63391976  0.06019065     0.18600
H1002       H  0.59426164  0.64100900  0.08608448     0.18600
C1003       C  0.46316301  0.68727822  0.92761361    -0.07200
C1004       C  0.47334193  0.66574678  0.89830029    -0.18300
C1005       C  0.49245469  0.63241682  0.90368675     0.10000
C1006       C  0.50484615  0.62131662  0.93896931    -0.07100
C1007       C  0.49656473  0.64452571  0.96734300    -0.18300
C1008       C  0.47327708  0.67449923  0.96257414     0.10000
S1009       S  0.49847079  0.60510687  0.86437836    -0.33300
S1010       S  0.44850785  0.68816919  0.00135781    -0.33300
H1011       H  0.43519363  0.65255028  0.00861239     0.28100
H1012       H  0.52508631  0.58224421  0.87872295     0.28000
H1013       H  0.46485306  0.67395430  0.87108236     0.18600
H1014       H  0.50457054  0.63665592  0.99466135     0.18600
C1015       C  0.38697063  0.53106606  0.06248417    -0.07200
C1016       C  0.38718838  0.56702411  0.07437277    -0.18300
C1017       C  0.35573176  0.58476258  0.08454947     0.10000
C1018       C  0.32290211  0.56580013  0.08336319    -0.07100
C1019       C  0.32296589  0.52926096  0.07248668    -0.18300
C1020       C  0.35456150  0.51188151  0.06176763     0.10000
S1021       S  0.35794803  0.63281724  0.09490924    -0.33300
S1022       S  0.35303829  0.46628296  0.04444167    -0.33300
H1023       H  0.31584059  0.46318537  0.04400050     0.28100
H1024       H  0.39492181  0.63704593  0.09114659     0.28000
H1025       H  0.41193246  0.58209709  0.07310354     0.18600
H1026       H  0.29807858  0.51457837  0.07165729     0.18600
C1027       C  0.38432294  0.48148540  0.92652381    -0.07200
C1028       C  0.35195293  0.49704637  0.93717616    -0.18300
C1029       C  0.31929868  0.48206113  0.92717924     0.10000
C1030       C  0.31898101  0.44962241  0.90721406    -0.07100
C1031       C  0.35156460  0.43632411  0.89385790    -0.18300
C1032       C  0.38397354  0.45203407  0.90300693     0.10000
S1033       S  0.27873628  0.50503506  0.93994436    -0.33300
S1034       S  0.42404571  0.43149651  0.88602087    -0.33300
H1035       H  0.44538149  0.46279385  0.88880839     0.28100
H1036       H  0.29449482  0.53443418  0.95730190     0.28000
H1037       H  0.35236845  0.51976806  0.95520865     0.18600
H1038       H  0.35213712  0.41232282  0.87752730     0.18600
C1039       C  0.07890409  0.47651094  0.39329789    -0.07200
C1040       C  0.08111690  0.43830718  0.38973125    -0.18300
C1041       C  0.08464042  0.42273842  0.35573092     0.10000
C1042       C  0.08651763  0.44567321  0.32372417    -0.07100
C1043       C  0.08727682  0.48396470  0.32731377    -0.18300
C1044       C  0.08466098  0.49948533  0.36175313     0.10000
S1045       S  0.08313705  0.37323252  0.35385553    -0.33300
S1046       S  0.08898224  0.54861182  0.36378083    -0.33300
H1047       H  0.10048874  0.54804757  0.40006418     0.28100
H1048       H  0.08816069  0.36517531  0.39120055     0.28000
H1049       H  0.07710040  0.42015080  0.41343338     0.18600
H1050       H  0.09063616  0.50186009  0.30326138     0.18600
C1051       C  0.96181707  0.51072832  0.36767993    -0.07200
C1052       C  0.99001161  0.52238719  0.34529450    -0.18300
C1053       C  0.98444046  0.54293089  0.31325897     0.10000
C1054       C  0.94943339  0.54874247  0.30084393    -0.07100
C1055       C  0.92088535  0.53520919  0.32250269    -0.18300
C1056       C  0.92674356  0.51682248  0.35616827     0.10000
S1057       S  0.02271637  0.56599147  0.29367632    -0.33300
S1058       S  0.88884991  0.50217781  0.38326669    -0.33300
H1059       H  0.90644888  0.47419183  0.40353078     0.28100
H1060       H  0.00483960  0.59915213  0.28528075     0.28000
H1061       H  0.01698158  0.51891196  0.35497330     0.18600
H1062       H  0.89382752  0.53958254  0.31349555     0.18600
C1063       C  0.08468450  0.54516140  0.67318761    -0.07200
C1064       C  0.08519545  0.50683620  0.67027199    -0.18300
C1065       C  0.08125474  0.49047781  0.63629318     0.10000
C1066       C  0.07755885  0.51281897  0.60385118    -0.07100
C1067       C  0.07877256  0.55111606  0.60695344    -0.18300
C1068       C  0.08078191  0.56726232  0.64084204     0.10000
S1069       S  0.08146474  0.44096826  0.63492936    -0.33300
S1070       S  0.07477771  0.61637380  0.64103045    -0.33300
H1071       H  0.05758987  0.61646686  0.67514141     0.28100
H1072       H  0.07734295  0.43382227  0.67260658     0.28000
H1073       H  0.08899667  0.48968121  0.69466897     0.18600
H1074       H  0.07526084  0.56896737  0.58303261     0.18600
C1075       C  0.94469542  0.45508355  0.69996180    -0.07200
C1076       C  0.92122090  0.45213887  0.67061061    -0.18300
C1077       C  0.92868065  0.46795540  0.63597984     0.10000
C1078       C  0.96065917  0.48739747  0.62970023    -0.07100
C1079       C  0.98259736  0.49352004  0.65941421    -0.18300
C1080       C  0.97507035  0.47779795  0.69434655     0.10000
S1081       S  0.89710295  0.46272814  0.59980646    -0.33300
S1082       S  0.00610192  0.48595123  0.73000477    -0.33300
H1083       H  0.01790337  0.51976596  0.71469526     0.28100
H1084       H  0.87170888  0.44217158  0.62009963     0.28000
H1085       H  0.89706906  0.43645015  0.67437355     0.18600
H1086       H  0.00706887  0.50855154  0.65478486     0.18600
C1087       C  0.07573771  0.29518803  0.52982108    -0.07200
C1088       C  0.04848025  0.29693666  0.50388649    -0.18300
C1089       C  0.04051502  0.32997589  0.48473209     0.10000
C1090       C  0.05777679  0.36257413  0.49436955    -0.07100
C1091       C  0.08830658  0.35959122  0.51543782    -0.18300
C1092       C  0.09837647  0.32615850  0.53194959     0.10000
S1093       S  0.00775812  0.32873855  0.44950978    -0.33300
S1094       S  0.14001438  0.32601263  0.55560773    -0.33300
H1095       H  0.14973749  0.29072660  0.54491704     0.28100
H1096       H  0.02598738  0.35350453  0.42569793     0.28000
H1097       H  0.03249829  0.27294167  0.49928503     0.18600
H1098       H  0.10356926  0.38396049  0.52057339     0.18600
C1099       C  0.93085299  0.38062100  0.48198745    -0.07200
C1100       C  0.91401358  0.38106554  0.44807492    -0.18300
C1101       C  0.90545781  0.34871856  0.43112241     0.10000
C1102       C  0.91155207  0.31413408  0.44917403    -0.07100
C1103       C  0.92459533  0.31363588  0.48485557    -0.18300
C1104       C  0.93443101  0.34625305  0.50148984     0.10000
S1105       S  0.89091729  0.35416882  0.38466121    -0.33300
S1106       S  0.95333811  0.34270202  0.54651433    -0.33300
H1107       H  0.95439402  0.30414147  0.55014937     0.28100
H1108       H  0.91504649  0.32811836  0.37166668     0.28000
H1109       H  0.91057827  0.40685945  0.43274919     0.18600
H1110       H  0.92824542  0.28740361  0.49925604     0.18600
C1111       C  0.94173620  0.61302630  0.52290404    -0.07200
C1112       C  0.93857961  0.61515011  0.56092438    -0.18300
C1113       C  0.93617040  0.64888059  0.57774395     0.10000
C1114       C  0.93560740  0.68200190  0.55633924    -0.07100
C1115       C  0.93737252  0.68029568  0.51834521    -0.18300
C1116       C  0.93991149  0.64638262  0.50143505     0.10000
S1117       S  0.93679953  0.64930524  0.62692847    -0.33300
S1118       S  0.94022603  0.64786587  0.45245574    -0.33300
H1119       H  0.92068908  0.61525785  0.44987026     0.28100
H1120       H  0.94103661  0.61129262  0.63376241     0.28000
H1121       H  0.94026712  0.59026856  0.57793361     0.18600
H1122       H  0.93594029  0.70549554  0.50168671     0.18600
C1123       C  0.07019843  0.69842286  0.45999631    -0.07200
C1124       C  0.05561846  0.67209382  0.43820153    -0.18300
C1125       C  0.04509117  0.63769939  0.45256766     0.10000
C1126       C  0.04931340  0.62880500  0.49033169    -0.07100
C1127       C  0.06306986  0.65576019  0.51254108    -0.18300
C1128       C  0.07410804  0.69025495  0.49768123     0.10000
S1129       S  0.02556292  0.60633534  0.42162132    -0.33300
S1130       S  0.09410979  0.72171101  0.52793951    -0.33300
H1131       H  0.11182890  0.74377438  0.50136725     0.28100
H1132       H  0.02160047  0.63115433  0.39159323     0.28000
H1133       H  0.05263991  0.67865640  0.40939243     0.18600
H1134       H  0.06643579  0.64946474  0.54134525     0.18600
C1135       C  0.46277849  0.08303447  0.67375138    -0.07200
C1136       C  0.49411218  0.06193314  0.67807786    -0.18300
C1137       C  0.51395505  0.05010547  0.64790033     0.10000
C1138       C  0.50212990  0.05911325  0.61227137    -0.07100
C1139       C  0.47350612  0.08382329  0.60824192    -0.18300
C1140       C  0.45351839  0.09544546  0.63791319     0.10000
S1141       S  0.55368203  0.02310505  0.65543616    -0.33300
S1142       S  0.41465091  0.12341275  0.62791414    -0.33300
H1143       H  0.42138589  0.13096093  0.59068533     0.28100
H1144       H  0.55515858  0.02689448  0.69322543     0.28000
H1145       H  0.50246546  0.05351031  0.70522775     0.18600
H1146       H  0.46469263  0.09200538  0.58121375     0.18600
C1147       C  0.50159167  0.92957662  0.61979807    -0.07200
C1148       C  0.52728509  0.90158504  0.61945558    -0.18300
C1149       C  0.54680289  0.89078892  0.65036739     0.10000
C1150       C  0.54073645  0.90842997  0.68375682    -0.07100
C1151       C  0.51249392  0.93399511  0.68494135    -0.18300
C1152       C  0.49267559  0.94433431  0.65366072     0.10000
S1153       S  0.58042123  0.85575389  0.64456602    -0.33300
S1154       S  0.45595679  0.97592046  0.65761996    -0.33300
H1155       H  0.46377327  0.98700426  0.69265994     0.28100
H1156       H  0.56870932  0.84306213  0.61117667     0.28000
H1157       H  0.53382072  0.88936417  0.59394295     0.18600
H1158       H  0.50615146  0.94642497  0.71039293     0.18600
C1159       C  0.38474118  0.05640848  0.50130925    -0.07200
C1160       C  0.38304909  0.06448820  0.46358419    -0.18300
C1161       C  0.35094793  0.06972801  0.44547516     0.10000
C1162       C  0.31851094  0.06949655  0.46520685    -0.07100
C1163       C  0.31975097  0.06250105  0.50317360    -0.18300
C1164       C  0.35231442  0.05619024  0.52136709     0.10000
S1165       S  0.35355663  0.07314449  0.39642305    -0.33300
S1166       S  0.35055187  0.04866818  0.56999645    -0.33300
H1167       H  0.38124088  0.06927055  0.57609948     0.28100
H1168       H  0.32325458  0.05156824  0.39126216     0.28000
H1169       H  0.40699850  0.06436604  0.44705862     0.18600
H1170       H  0.29529371  0.06264122  0.51890047     0.18600
C1171       C  0.37668225  0.95580822  0.51419622    -0.07200
C1172       C  0.37553213  0.95146175  0.55249497    -0.18300
C1173       C  0.34359133  0.94886025  0.57232885     0.10000
C1174       C  0.31082844  0.94871602  0.55396913    -0.07100
C1175       C  0.31136516  0.95383567  0.51574738    -0.18300
C1176       C  0.34369677  0.95734851  0.49580263     0.10000
S1177       S  0.34520695  0.94837798  0.62153974    -0.33300
S1178       S  0.34092689  0.96290096  0.44712117    -0.33300
H1179       H  0.36911133  0.93857465  0.44052445     0.28100
H1180       H  0.38203467  0.95304843  0.62486526     0.28000
H1181       H  0.40001655  0.95142267  0.56755677     0.18600
H1182       H  0.28652071  0.95391796  0.50118042     0.18600
C1183       C  0.51055559  0.05805625  0.38767357    -0.07200
C1184       C  0.48801381  0.06274483  0.35749320    -0.15700
C1185       C  0.50163156  0.07158875  0.32226612     0.10000
C1186       C  0.53878863  0.07209229  0.31610595    -0.07100
C1187       C  0.56097629  0.06712772  0.34611201    -0.18300
C1188       C  0.54773121  0.06184409  0.38151838     0.10000
S1189       S  0.47032883  0.08539612  0.28773800    -0.33300
S1190       S  0.57997079  0.05876904  0.41747908    -0.33300
H1191       H  0.60912236  0.07347926  0.39767837     0.28100
H1192       H  0.49402179  0.10645993  0.26582682     0.28000
H1193       H  0.45955245  0.06089635  0.36162100     0.18600
H1194       H  0.58937583  0.06727337  0.34171745     0.18600
C1195       C  0.46769861  0.92628798  0.32023075    -0.07200
C1196       C  0.45842999  0.90473394  0.35177120    -0.18300
C1197       C  0.47382046  0.91011071  0.38578561     0.10000
C1198       C  0.49849377  0.93879628  0.38936573    -0.07100
C1199       C  0.51062170  0.95761823  0.35743135    -0.18300
C1200       C  0.49621202  0.95122904  0.32311280     0.10000
S1201       S  0.46138996  0.88009733  0.42420940    -0.33300
S1202       S  0.51548503  0.97479909  0.28386750    -0.33300
H1203       H  0.54464990  0.99017353  0.30122104     0.28100
H1204       H  0.43983258  0.85610250  0.40527247     0.28000
H1205       H  0.43814881  0.88396639  0.35026625     0.18600
H1206       H  0.53039904  0.97886642  0.35948363     0.18600
C1207       C  0.62227368  0.05724452  0.53505623    -0.07200
C1208       C  0.61971731  0.07552677  0.56767312    -0.18300
C1209       C  0.65014513  0.08792391  0.58539164     0.10000
C1210       C  0.68442351  0.08193538  0.56995015    -0.07100
C1211       C  0.68648686  0.06464119  0.53646502    -0.18300
C1212       C  0.65601260  0.05202077  0.51919722     0.10000
S1213       S  0.64419914  0.10817293  0.62910614    -0.33300
S1214       S  0.66049071  0.02758242  0.47769313    -0.33300
H1215       H  0.69774416  0.02496456  0.47760504     0.28100
H1216       H  0.60686251  0.10831479  0.62983973     0.28000
H1217       H  0.59381175  0.07809764  0.58034528     0.18600
H1218       H  0.71222438  0.06023263  0.52405506     0.18600
C1219       C  0.61991821  0.92432853  0.47358451    -0.07200
C1220       C  0.65184831  0.92846840  0.49235861    -0.18300
C1221       C  0.68476224  0.91848999  0.47718332     0.10000
C1222       C  0.68637226  0.90499358  0.44158262    -0.07100
C1223       C  0.65407422  0.89888923  0.42384468    -0.18300
C1224       C  0.62123022  0.90823061  0.43938604     0.10000
S1225       S  0.72345130  0.92369534  0.50485743    -0.33300
S1226       S  0.58194144  0.90080649  0.41330289    -0.33300
H1227       H  0.55889844  0.89715033  0.44353635     0.28100
H1228       H  0.74033264  0.89168833  0.49325851     0.28000
H1229       H  0.65133213  0.94124335  0.51843100     0.18600
H1230       H  0.65434232  0.88804191  0.39687981     0.18600
loop_ 
_geom_bond_atom_site_label_1 
_geom_bond_atom_site_label_2 
_geom_bond_distance 
_geom_bond_site_symmetry_2 
_ccdc_geom_bond_type 
O1            C9   1.267       .  A
O1          Co21   1.996   1_565  S
O2           C10   1.286       .  A
O2          Co22   2.056   1_565  S
O3           C11   1.258       .  A
O3          Co23   1.962       .  S
O4           C12   1.271       .  A
O4          Co24   1.959       .  S
O5           C11   1.269       .  A
O5          Co22   2.041   1_565  S
O6           C12   1.287       .  A
O6          Co21   2.053   1_565  S
O7           C10   1.277       .  A
O7          Co24   1.966       .  S
O8            C9   1.275       .  A
O8          Co23   2.007       .  S
C9         C1219   1.486       .  S
C10        C1171   1.515       .  S
C11        C1147   1.504       .  S
C12        C1198   1.499       .  S
O13          C26   1.257       .  A
O13         Co21   1.961       .  S
O14          C27   1.262       .  A
O14         Co22   1.949       .  S
O15          C28   1.265       .  A
O15         Co23   1.993   1_545  S
O16          C29   1.286       .  A
O16         Co24   2.063   1_545  S
O17          C29   1.272       .  A
O17         Co22   1.957       .  S
O18          C28   1.270       .  A
O18         Co21   2.007       .  S
O19          C26   1.268       .  A
O19         Co24   2.041   1_545  S
O20          C27   1.285       .  A
O20         Co23   2.073   1_545  S
Co21         O25   2.015   1_545  S
Co22         O25   2.034   1_545  S
Co23         O25   2.046       .  S
Co24         O25   2.064       .  S
C26        C1183   1.502       .  S
C27        C1138   1.502       .  S
C28        C1207   1.480       .  S
C29        C1159   1.508       .  S
O30          C38   1.246       .  A
O30         Co50   1.962   1_655  S
O31          C39   1.260       .  A
O31         Co51   1.953   1_655  S
O32          C40   1.264       .  A
O32         Co52   2.001   1_655  S
O33          C41   1.266       .  A
O33         Co53   1.969   1_655  S
O34          C40   1.256       .  A
O34         Co51   1.968   1_655  S
O35          C41   1.279       .  A
O35         Co50   2.037   1_655  S
O36          C39   1.269       .  A
O36         Co53   2.026   1_655  S
O37          C38   1.252       .  A
O37         Co52   2.018   1_655  S
C38        C1111   1.502       .  S
C39        C1099   1.500       .  S
C40        C1051   1.460       .  S
C41        C1078   1.489       .  S
O42          C55   1.261       .  A
O42         Co50   1.980       .  S
O43          C56   1.250       .  A
O43         Co51   1.956       .  S
O44          C57   1.285       .  A
O44         Co52   2.023       .  S
O45          C58   1.274       .  A
O45         Co53   2.014       .  S
O46          C58   1.253       .  A
O46         Co51   1.963       .  S
O47          C57   1.283       .  A
O47         Co50   1.965       .  S
O48          C55   1.263       .  A
O48         Co53   2.014       .  S
O49          C56   1.266       .  A
O49         Co52   2.040       .  S
Co50         O54   1.987   1_455  S
Co51         O54   1.993   1_455  S
Co52         O54   2.202   1_455  S
Co53         O54   2.120   1_455  S
C55        C1066   1.508       .  S
C56        C1039   1.498       .  S
C57        C1126   1.494       .  S
C58        C1090   1.478       .  S
O59          C67   1.261       .  A
O59         Co79   1.979   1_554  S
O60          C68   1.286       .  A
O60         Co80   2.069   1_554  S
O61          C69   1.254       .  A
O61         Co81   1.958       .  S
O62          C70   1.266       .  A
O62         Co82   1.960       .  S
O63          C69   1.274       .  A
O63         Co80   2.059   1_554  S
O64          C70   1.291       .  A
O64         Co79   2.083   1_554  S
O65          C68   1.276       .  A
O65         Co82   1.960       .  S
O66          C67   1.268       .  A
O66         Co81   1.995       .  S
C67        C1015   1.473       .  S
C68         C970   1.518       .  S
C69         C943   1.512       .  S
C70         C991   1.512       .  S
O71          C84   1.252       .  A
O71         Co79   1.962       .  S
O72          C85   1.266       .  A
O72         Co80   1.961       .  S
O73          C86   1.268       .  A
O73         Co81   1.993   1_556  S
O74          C87   1.287       .  A
O74         Co82   2.056   1_556  S
O75          C87   1.278       .  A
O75         Co80   1.947       .  S
O76          C86   1.271       .  A
O76         Co79   1.994       .  S
O77          C84   1.275       .  A
O77         Co82   2.068   1_556  S
O78          C85   1.282       .  A
O78         Co81   2.056   1_556  S
Co79         O83   2.044       .  S
Co80         O83   2.055       .  S
Co81         O83   2.040   1_554  S
Co82         O83   2.047   1_554  S
C84        C1006   1.514       .  S
C85         C958   1.507       .  S
C86        C1027   1.474       .  S
C87         C982   1.503       .  S
C88         C922   1.491       .  S
C88          N89   1.370       .  A
C88          N93   1.356       .  A
N89          C90   1.370       .  A
C90        C1150   1.513       .  S
C90          N91   1.360       .  A
N91          C92   1.354       .  A
C92         C931   1.473       .  S
C92          N93   1.349       .  A
C94         C895   1.495       .  S
C94          N95   1.357       .  A
C94          N99   1.359       .  A
N95          C96   1.356       .  A
C96         C907   1.485       .  S
C96          N97   1.358       .  A
N97          C98   1.359       .  A
C98         C934   1.502       .  S
C98          N99   1.363       .  A
C100       C1114   1.487       .  S
C100        N101   1.352       .  A
C100        N105   1.366       .  A
N101        C102   1.353       .  A
C102        C910   1.496       .  S
C102        N103   1.358       .  A
N103        C104   1.367       .  A
C104        C883   1.513       .  S
C104        N105   1.370       .  A
C106        C874   1.517       .  S
C106        N107   1.359       .  A
C106        N111   1.380       .  A
N107        C108   1.348       .  A
C108        C898   1.485       .  S
C108        N109   1.351       .  A
N109        C110   1.359       .  A
C110        C979   1.516       .  S
C110        N111   1.379       .  A
C112        C847   1.494       .  S
C112        N113   1.360       .  A
C112        N117   1.356       .  A
N113        C114   1.362       .  A
C114        C835   1.491       .  S
C114        N115   1.361       .  A
N115        C116   1.357       .  A
C116        C859   1.497       .  S
C116        N117   1.355       .  A
C118       C1030   1.497       .  S
C118        N119   1.361       .  A
C118        N123   1.365       .  A
N119        C120   1.358       .  A
C120        C862   1.482       .  S
C120        N121   1.355       .  A
N121        C122   1.356       .  A
C122        C823   1.497       .  S
C122        N123   1.363       .  A
C124        C811   1.496       .  S
C124        N125   1.366       .  A
C124        N129   1.355       .  A
N125        C126   1.368       .  A
C126       C1135   1.506       .  S
C126        N127   1.361       .  A
N127        C128   1.355       .  A
C128        C850   1.478       .  S
C128        N129   1.351       .  A
C130        C799   1.493       .  S
C130        N131   1.360       .  A
C130        N135   1.365       .  A
N131        C132   1.356       .  A
C132        C838   1.483       .  S
C132        N133   1.351       .  A
N133        C134   1.355       .  A
C134       C1087   1.493       .  S
C134        N135   1.364       .  A
O136        C144   1.262       .  A
O136       Co156   1.978       .  S
O137        C145   1.285   1_565  A
O137       Co157   2.057       .  S
O138        C146   1.250   1_556  A
O138       Co158   1.949       .  S
O139        C147   1.267   1_554  A
O139       Co159   1.962       .  S
O140        C146   1.273       .  A
O140       Co157   2.063       .  S
O141        C147   1.283       .  A
O141       Co156   2.070       .  S
O142        C145   1.271       .  A
O142       Co159   1.939       .  S
O143        C144   1.266   1_565  A
O143       Co158   1.990       .  S
C144        C814   1.465       .  S
C145        C763   1.493   1_545  S
C146        C739   1.516   1_554  S
C147        C778   1.511   1_556  S
O148        C161   1.260   1_556  A
O148       Co156   1.965       .  S
O149        C162   1.269   1_554  A
O149       Co157   1.962       .  S
O150        C163   1.266       .  A
O150       Co158   1.981       .  S
O151        C164   1.284   1_545  A
O151       Co159   2.047       .  S
O152        C164   1.278       .  A
O152       Co157   1.961       .  S
O153        C163   1.274   1_545  A
O153       Co156   1.997       .  S
O154        C161   1.267       .  A
O154       Co159   2.042       .  S
O155        C162   1.287       .  A
O155       Co158   2.073       .  S
Co156       O160   2.059   1_545  S
Co157       O160   2.069   1_554  S
Co158       O160   2.031       .  S
Co159       O160   2.031   1_544  S
C161        C790   1.508   1_554  S
C162        C727   1.515   1_556  S
C163        C919   1.471       .  S
C164        C754   1.509   1_565  S
C165        C715   1.517       .  S
C165        N166   1.368       .  A
C165        N170   1.364       .  A
N166        C167   1.367       .  A
C167        C706   1.507       .  S
C167        N168   1.361       .  A
N168        C169   1.360       .  A
C169        C694   1.498       .  S
C169        N170   1.363       .  A
C171       C1003   1.513       .  S
C171        N172   1.374       .  A
C171        N176   1.363       .  A
N172        C173   1.371       .  A
C173        C742   1.525       .  S
C173        N174   1.368       .  A
N174        C175   1.365       .  A
C175        C718   1.505       .  S
C175        N176   1.363       .  A
C177        C679   1.515       .  S
C177        N178   1.374       .  A
C177        N182   1.365       .  A
N178        C179   1.373       .  A
C179       C1174   1.504       .  S
C179        N180   1.362       .  A
N180        C181   1.354       .  A
C181        C703   1.488       .  S
C181        N182   1.357       .  A
C183       C1063   1.502       .  S
C183        N184   1.374       .  A
C183        N188   1.361       .  A
N184        C185   1.373       .  A
C185        C667   1.519       .  S
C185        N186   1.364       .  A
N186        C187   1.361       .  A
C187        C691   1.514       .  S
C187        N188   1.356       .  A
C189        C646   1.497       .  S
C189        N190   1.362       .  A
C189        N194   1.360       .  A
N190        C191   1.363       .  A
C191        C631   1.500       .  S
C191        N192   1.365       .  A
N192        C193   1.361       .  A
C193        C655   1.484       .  S
C193        N194   1.358       .  A
C195       C1102   1.496       .  S
C195        N196   1.370       .  A
C195        N200   1.360       .  A
N196        C197   1.368       .  A
C197        C619   1.504       .  S
C197        N198   1.362       .  A
N198        C199   1.356       .  A
C199        C658   1.481       .  S
C199        N200   1.354       .  A
C201        C610   1.506       .  S
C201        N202   1.373       .  A
C201        N206   1.363       .  A
N202        C203   1.372       .  A
C203        C967   1.499       .  S
C203        N204   1.361       .  A
N204        C205   1.358       .  A
C205        C643   1.501       .  S
C205        N206   1.357       .  A
C207       C1186   1.493       .  S
C207        N208   1.367       .  A
C207        N212   1.359       .  A
N208        C209   1.371       .  A
C209        C751   1.508       .  S
C209        N210   1.367       .  A
N210        C211   1.362       .  A
C211        C634   1.505       .  S
C211        N212   1.355       .  A
O213        C221   1.266       .  A
O213       Co233   2.022       .  S
O214        C222   1.263       .  A
O214       Co234   1.984       .  S
O215        C223   1.261   1_655  A
O215       Co235   1.935       .  S
O216        C224   1.262       .  A
O216       Co236   1.963       .  S
O217        C223   1.284       .  A
O217       Co234   2.044       .  S
O218        C224   1.278   1_655  A
O218       Co233   2.066       .  S
O219        C222   1.273   1_556  A
O219       Co236   2.005       .  S
O220        C221   1.244   1_554  A
O220       Co235   1.963       .  S
C221        C871   1.494       .  S
C222        C598   1.478       .  S
C223        C574   1.485       .  S
C224        C670   1.513       .  S
O225        C238   1.267       .  A
O225       Co233   1.959   1_455  S
O226        C239   1.266       .  A
O226       Co234   1.974       .  S
O227        C240   1.289   1_554  A
O227       Co235   2.044       .  S
O228        C241   1.266       .  A
O228       Co236   1.995       .  S
O229        C241   1.268   1_554  A
O229       Co234   1.993       .  S
O230        C240   1.283       .  A
O230       Co233   1.940       .  S
O231        C238   1.280       .  A
O231       Co236   2.050       .  S
O232        C239   1.252   1_655  A
O232       Co235   1.989       .  S
Co233       O237   2.011   1_655  S
Co234       O237   2.075   1_554  S
Co235       O237   2.075   1_654  S
Co236       O237   2.047       .  S
C238        C562   1.501       .  S
C239        C586   1.491       .  S
C240        C607   1.499   1_556  S
C241        C826   1.473       .  S
C242        C538   1.504       .  S
C242        N243   1.371       .  A
C242        N247   1.360       .  A
N243        C244   1.371       .  A
C244       C1162   1.500       .  S
C244        N245   1.362       .  A
N245        C246   1.356       .  A
C246        C550   1.501       .  S
C246        N247   1.356       .  A
C248        C547   1.482       .  S
C248        N249   1.357       .  A
C248        N253   1.361       .  A
N249        C250   1.359       .  A
C250        C526   1.487       .  S
C250        N251   1.364       .  A
N251        C252   1.366       .  A
C252        C511   1.505       .  S
C252        N253   1.364       .  A
C254        C583   1.492       .  S
C254        N255   1.370       .  A
C254        N259   1.360       .  A
N255        C256   1.371       .  A
C256       C1042   1.494       .  S
C256        N257   1.359       .  A
N257        C258   1.357       .  A
C258        C523   1.505       .  S
C258        N259   1.353       .  A
C260        C946   1.517       .  S
C260        N261   1.366       .  A
C260        N265   1.370       .  A
N261        C262   1.360       .  A
C262        C514   1.505       .  S
C262        N263   1.360       .  A
N263        C264   1.363       .  A
C264        C775   1.510       .  S
C264        N265   1.370       .  A
C266        C499   1.506       .  S
C266        N267   1.363       .  A
C266        N271   1.366       .  A
N267        C268   1.357       .  A
C268        C475   1.480       .  S
C268        N269   1.354       .  A
N269        C270   1.357       .  A
C270        C490   1.495       .  S
C270        N271   1.365       .  A
C272       C1075   1.510       .  S
C272        N273   1.363       .  A
C272        N277   1.365       .  A
N273        C274   1.357       .  A
C274        C502   1.490       .  S
C274        N275   1.357       .  A
N275        C276   1.360       .  A
C276        C559   1.501       .  S
C276        N277   1.367       .  A
C278        C787   1.504       .  S
C278        N279   1.371       .  A
C278        N283   1.359       .  A
N279        C280   1.373       .  A
C280        C955   1.516       .  S
C280        N281   1.364       .  A
N281        C282   1.356       .  A
C282        C487   1.498       .  S
C282        N283   1.357       .  A
C284       C1210   1.504       .  S
C284        N285   1.367       .  A
C284        N289   1.360       .  A
N285        C286   1.366       .  A
C286        C466   1.500       .  S
C286        N287   1.358       .  A
N287        C288   1.355       .  A
C288        C478   1.472       .  S
C288        N289   1.358       .  A
C290        C427   1.490       .  S
C290        N291   1.360       .  A
C290        N295   1.361       .  A
N291        C292   1.359       .  A
C292        C451   1.502       .  S
C292        N293   1.362       .  A
N293        C294   1.360       .  A
C294        C439   1.489       .  S
C294        N295   1.361       .  A
C296       C1222   1.502       .  S
C296        N297   1.361       .  A
C296        N301   1.366       .  A
N297        C298   1.360       .  A
C298        C454   1.491       .  S
C298        N299   1.360       .  A
N299        C300   1.362       .  A
C300        C415   1.509       .  S
C300        N301   1.366       .  A
C302        C571   1.504       .  S
C302        N303   1.366       .  A
C302        N307   1.357       .  A
N303        C304   1.363       .  A
C304        C442   1.502       .  S
C304        N305   1.358       .  A
N305        C306   1.354       .  A
C306       C1054   1.477       .  S
C306        N307   1.357       .  A
C308        C730   1.517       .  S
C308        N309   1.365       .  A
C308        N313   1.375       .  A
N309        C310   1.360       .  A
C310        C430   1.499       .  S
C310        N311   1.354       .  A
N311        C312   1.359       .  A
C312        C994   1.505       .  S
C312        N313   1.373       .  A
C314        C391   1.495       .  S
C314        N315   1.361       .  A
C314        N319   1.360       .  A
N315        C316   1.362       .  A
C316        C403   1.491       .  S
C316        N317   1.359       .  A
N317        C318   1.356       .  A
C318        C379   1.477       .  S
C318        N319   1.357       .  A
C320       C1195   1.514       .  S
C320        N321   1.374       .  A
C320        N325   1.360       .  A
N321        C322   1.373       .  A
C322        C766   1.511       .  S
C322        N323   1.360       .  A
N323        C324   1.353       .  A
C324        C406   1.484       .  S
C324        N325   1.353       .  A
C326        C367   1.495       .  S
C326        N327   1.363       .  A
C326        N331   1.363       .  A
N327        C328   1.360       .  A
C328        C394   1.489       .  S
C328        N329   1.358       .  A
N329        C330   1.358       .  A
C330       C1123   1.477       .  S
C330        N331   1.359       .  A
C332       C1018   1.493       .  S
C332        N333   1.368       .  A
C332        N337   1.357       .  A
N333        C334   1.368       .  A
C334        C595   1.495       .  S
C334        N335   1.359       .  A
N335        C336   1.354       .  A
C336        C382   1.468       .  S
C336        N337   1.353       .  A
O338        C346   1.254   1_655  A
O338       Co358   1.958       .  S
O339        C347   1.265       .  A
O339       Co359   1.953   1_655  S
O340        C348   1.289   1_565  A
O340       Co360   2.070       .  S
O341        C349   1.266       .  A
O341       Co361   1.992       .  S
O342        C348   1.274       .  A
O342       Co359   1.953       .  S
O343        C349   1.272   1_565  A
O343       Co358   2.001       .  S
O344        C347   1.282       .  A
O344       Co361   2.059       .  S
O345        C346   1.267       .  A
O345       Co360   2.035       .  S
C346        C886   1.500       .  S
C347        C802   1.496       .  S
C348        C682   1.511       .  S
C349        C463   1.477       .  S
O350        C363   1.266       .  A
O350       Co358   1.993       .  S
O351        C364   1.289   1_545  A
O351       Co359   2.067       .  S
O352        C365   1.266   1_455  A
O352       Co360   1.947       .  S
O353        C366   1.258   1_655  A
O353       Co361   1.961       .  S
O354        C366   1.271       .  A
O354       Co359   2.054       .  S
O355        C365   1.288       .  A
O355       Co358   2.058       .  S
O356        C363   1.274   1_545  A
O356       Co361   2.003       .  S
O357        C364   1.271       .  A
O357       Co360   1.943       .  S
Co358       O362   2.024       .  S
Co359       O362   2.043   1_445  S
Co360       O362   2.043   1_455  S
Co361       O362   2.036   1_545  S
C363        C418   1.483       .  S
C364        C535   1.507   1_565  S
C365        C370   1.495   1_655  S
C366        C622   1.506   1_455  S
C367        C368   1.405       .  A
C367        C372   1.418       .  A
C368        C369   1.399       .  A
C368        H377   1.083       .  S
C369        C370   1.420       .  A
C369        S373   1.804       .  S
C370        C371   1.407   1_455  A
C371        C372   1.403   1_655  A
C371        H378   1.083       .  S
C372        S374   1.803   1_455  S
S373        H376   1.408       .  S
S374        H375   1.408       .  S
C379        C380   1.404       .  A
C379        C384   1.413       .  A
C380        C381   1.402       .  A
C380        H389   1.083       .  S
C381        C382   1.406       .  A
C381        S385   1.806       .  S
C382        C383   1.400       .  A
C383        C384   1.404       .  A
C383        H390   1.083       .  S
C384        S386   1.807       .  S
S385        H388   1.407       .  S
S386        H387   1.407       .  S
C391        C392   1.408       .  A
C391        C396   1.419       .  A
C392        C393   1.403       .  A
C392        H401   1.082       .  S
C393        C394   1.415       .  A
C393        S397   1.810       .  S
C394        C395   1.405       .  A
C395        C396   1.404       .  A
C395        H402   1.084       .  S
C396        S398   1.802       .  S
S397        H400   1.406       .  S
S398        H399   1.407       .  S
C403        C404   1.408       .  A
C403        C408   1.417       .  A
C404        C405   1.399       .  A
C404        H413   1.084       .  S
C405        C406   1.414       .  A
C405        S409   1.804       .  S
C406        C407   1.405       .  A
C407        C408   1.401       .  A
C407        H414   1.084       .  S
C408        S410   1.802       .  S
S409        H412   1.407       .  S
S410        H411   1.407       .  S
C415        C416   1.413       .  A
C415        C420   1.422       .  A
C416        C417   1.405       .  A
C416        H425   1.082       .  S
C417        C418   1.408       .  A
C417        S421   1.802       .  S
C418        C419   1.404       .  A
C419        C420   1.411       .  A
C419        H426   1.083   1_565  S
C420        S422   1.808       .  S
S421        H424   1.406       .  S
S422        H423   1.407   1_565  S
C427        C428   1.403       .  A
C427        C432   1.415       .  A
C428        C429   1.406       .  A
C428        H437   1.082       .  S
C429        C430   1.422       .  A
C429        S433   1.807       .  S
C430        C431   1.407       .  A
C431        C432   1.402       .  A
C431        H438   1.083       .  S
C432        S434   1.803       .  S
S433        H436   1.406       .  S
S434        H435   1.407       .  S
C439        C440   1.405       .  A
C439        C444   1.412       .  A
C440        C441   1.408       .  A
C440        H449   1.082       .  S
C441        C442   1.421       .  A
C441        S445   1.808       .  S
C442        C443   1.411       .  A
C443        C444   1.399       .  A
C443        H450   1.083       .  S
C444        S446   1.804       .  S
S445        H448   1.406       .  S
S446        H447   1.407       .  S
C451        C452   1.410       .  A
C451        C456   1.423       .  A
C452        C453   1.405       .  A
C452        H461   1.082       .  S
C453        C454   1.413       .  A
C453        S457   1.809       .  S
C454        C455   1.404       .  A
C455        C456   1.407       .  A
C455        H462   1.082       .  S
C456        S458   1.810       .  S
S457        H460   1.407       .  S
S458        H459   1.406       .  S
C463        C464   1.398       .  A
C463        C468   1.409       .  A
C464        C465   1.407       .  A
C464        H473   1.082       .  S
C465        C466   1.424       .  A
C465        S469   1.810       .  S
C466        C467   1.409       .  A
C467        C468   1.407       .  A
C467        H474   1.082       .  S
C468        S470   1.807   1_545  S
S469        H472   1.407       .  S
S470        H471   1.407       .  S
C475        C476   1.404       .  A
C475        C480   1.412       .  A
C476        C477   1.400       .  A
C476        H485   1.084       .  S
C477        C478   1.411       .  A
C477        S481   1.806       .  S
C478        C479   1.403       .  A
C479        C480   1.407       .  A
C479        H486   1.083       .  S
C480        S482   1.807       .  S
S481        H484   1.404       .  S
S482        H483   1.407       .  S
C487        C488   1.405       .  A
C487        C492   1.419       .  A
C488        C489   1.402       .  A
C488        H497   1.080       .  S
C489        C490   1.417       .  A
C489        S493   1.811       .  S
C490        C491   1.407       .  A
C491        C492   1.411       .  A
C491        H498   1.082       .  S
C492        S494   1.808       .  S
S493        H496   1.407       .  S
S494        H495   1.407       .  S
C499        C500   1.412       .  A
C499        C504   1.423       .  A
C500        C501   1.401       .  A
C500        H509   1.083       .  S
C501        C502   1.412       .  A
C501        S505   1.804       .  S
C502        C503   1.405       .  A
C503        C504   1.409       .  A
C503        H510   1.081       .  S
C504        S506   1.809       .  S
S505        H508   1.407       .  S
S506        H507   1.407       .  S
C511        C512   1.409       .  A
C511        C516   1.418       .  A
C512        C513   1.412       .  A
C512        H521   1.082       .  S
C513        C514   1.417       .  A
C513        S517   1.808       .  S
C514        C515   1.407       .  A
C515        C516   1.408       .  A
C515        H522   1.079       .  S
C516        S518   1.810       .  S
S517        H520   1.407       .  S
S518        H519   1.407       .  S
C523        C524   1.410       .  A
C523        C528   1.426       .  A
C524        C525   1.403       .  A
C524        H533   1.081       .  S
C525        C526   1.410       .  A
C525        S529   1.809       .  S
C526        C527   1.402       .  A
C527        C528   1.410       .  A
C527        H534   1.082       .  S
C528        S530   1.810       .  S
S529        H532   1.407       .  S
S530        H531   1.406       .  S
C535        C536   1.407       .  A
C535        C540   1.421   1_545  A
C536        C537   1.402       .  A
C536        H545   1.082       .  S
C537        C538   1.419       .  A
C537        S541   1.813       .  S
C538        C539   1.409       .  A
C539        C540   1.417   1_545  A
C539        H546   1.082       .  S
C540        S542   1.806       .  S
S541        H544   1.406       .  S
S542        H543   1.407       .  S
C547        C548   1.402       .  A
C547        C552   1.411       .  A
C548        C549   1.406       .  A
C548        H557   1.084       .  S
C549        C550   1.422       .  A
C549        S553   1.801       .  S
C550        C551   1.410       .  A
C551        C552   1.403       .  A
C551        H558   1.083       .  S
C552        S554   1.804       .  S
S553        H556   1.408       .  S
S554        H555   1.406       .  S
C559        C560   1.409   1_655  A
C559        C564   1.420       .  A
C560        C561   1.411       .  A
C560        H569   1.082       .  S
C561        C562   1.418       .  A
C561        S565   1.809       .  S
C562        C563   1.406   1_455  A
C563        C564   1.403       .  A
C563        H570   1.081       .  S
C564        S566   1.811       .  S
S565        H568   1.407       .  S
S566        H567   1.407       .  S
C571        C572   1.409       .  A
C571        C576   1.426   1_655  A
C572        C573   1.400       .  A
C572        H581   1.081       .  S
C573        C574   1.413   1_655  A
C573        S577   1.804       .  S
C574        C575   1.401       .  A
C575        C576   1.400       .  A
C575        H582   1.083       .  S
C576        S578   1.804       .  S
S577        H580   1.408   1_655  S
S578        H579   1.407       .  S
C583        C584   1.408       .  A
C583        C588   1.415       .  A
C584        C585   1.416       .  A
C584        H593   1.083       .  S
C585        C586   1.419       .  A
C585        S589   1.807   1_455  S
C586        C587   1.401       .  A
C587        C588   1.395       .  A
C587        H594   1.084       .  S
C588        S590   1.804       .  S
S589        H592   1.407       .  S
S590        H591   1.407       .  S
C595        C596   1.407       .  A
C595        C600   1.420       .  A
C596        C597   1.406       .  A
C596        H605   1.084       .  S
C597        C598   1.413       .  A
C597        S601   1.802   1_554  S
C598        C599   1.403       .  A
C599        C600   1.405       .  A
C599        H606   1.083       .  S
C600        S602   1.811       .  S
S601        H604   1.404       .  S
S602        H603   1.407       .  S
C607        C608   1.406   1_554  A
C607        C612   1.422       .  A
C608        C609   1.415       .  A
C608        H617   1.082       .  S
C609        C610   1.415   1_556  A
C609        S613   1.791       .  S
C610        C611   1.402       .  A
C611        C612   1.400       .  A
C611        H618   1.079       .  S
C612        S614   1.812       .  S
S613        H616   1.407       .  S
S614        H615   1.406       .  S
C619        C620   1.413       .  A
C619        C624   1.417       .  A
C620        C621   1.420       .  A
C620        H629   1.082       .  S
C621        C622   1.416       .  A
C621        S625   1.805   1_655  S
C622        C623   1.408       .  A
C623        C624   1.401       .  A
C623        H630   1.081       .  S
C624        S626   1.813       .  S
S625        H628   1.407       .  S
S626        H627   1.406       .  S
C631        C632   1.404       .  A
C631        C636   1.419       .  A
C632        C633   1.402       .  A
C632        H641   1.084       .  S
C633        C634   1.422       .  A
C633        S637   1.801       .  S
C634        C635   1.408       .  A
C635        C636   1.411       .  A
C635        H642   1.081       .  S
C636        S638   1.808       .  S
S637        H640   1.408       .  S
S638        H639   1.407       .  S
C643        C644   1.409       .  A
C643        C648   1.419       .  A
C644        C645   1.408       .  A
C644        H653   1.082       .  S
C645        C646   1.416       .  A
C645        S649   1.808       .  S
C646        C647   1.407       .  A
C647        C648   1.406       .  A
C647        H654   1.082       .  S
C648        S650   1.808       .  S
S649        H652   1.407       .  S
S650        H651   1.407       .  S
C655        C656   1.404       .  A
C655        C660   1.413       .  A
C656        C657   1.409       .  A
C656        H665   1.083       .  S
C657        C658   1.411       .  A
C657        S661   1.806       .  S
C658        C659   1.402       .  A
C659        C660   1.406       .  A
C659        H666   1.083       .  S
C660        S662   1.807       .  S
S661        H664   1.407       .  S
S662        H663   1.407       .  S
C667        C668   1.415       .  A
C667        C672   1.421       .  A
C668        C669   1.421       .  A
C668        H677   1.081       .  S
C669        C670   1.418       .  A
C669        S673   1.801   1_455  S
C670        C671   1.409       .  A
C671        C672   1.405       .  A
C671        H678   1.082       .  S
C672        S674   1.810       .  S
S673        H676   1.407       .  S
S674        H675   1.407       .  S
C679        C680   1.413   1_565  A
C679        C684   1.422       .  A
C680        C681   1.421       .  A
C680        H689   1.082       .  S
C681        C682   1.419       .  A
C681        S685   1.806       .  S
C682        C683   1.407   1_545  A
C683        C684   1.405       .  A
C683        H690   1.082       .  S
C684        S686   1.811       .  S
S685        H688   1.407       .  S
S686        H687   1.407       .  S
C691        C692   1.412       .  A
C691        C696   1.427       .  A
C692        C693   1.408       .  A
C692        H701   1.079       .  S
C693        C694   1.412       .  A
C693        S697   1.807       .  S
C694        C695   1.404       .  A
C695        C696   1.411       .  A
C695        H702   1.082       .  S
C696        S698   1.809       .  S
S697        H700   1.407       .  S
S698        H699   1.406       .  S
C703        C704   1.402       .  A
C703        C708   1.413       .  A
C704        C705   1.410       .  A
C704        H713   1.083       .  S
C705        C706   1.423       .  A
C705        S709   1.809       .  S
C706        C707   1.410       .  A
C707        C708   1.408       .  A
C707        H714   1.083       .  S
C708        S710   1.805       .  S
S709        H712   1.407       .  S
S710        H711   1.404       .  S
C715        C716   1.412       .  A
C715        C720   1.426       .  A
C716        C717   1.412       .  A
C716        H725   1.082       .  S
C717        C718   1.415       .  A
C717        S721   1.807       .  S
C718        C719   1.405       .  A
C719        C720   1.413       .  A
C719        H726   1.082       .  S
C720        S722   1.810       .  S
S721        H724   1.407       .  S
S722        H723   1.406       .  S
C727        C728   1.414   1_554  A
C727        C732   1.420       .  A
C728        C729   1.416   1_556  A
C728        H737   1.083       .  S
C729        C730   1.420       .  A
C729        S733   1.801   1_554  S
C730        C731   1.411       .  A
C731        C732   1.405       .  A
C731        H738   1.083       .  S
C732        S734   1.803       .  S
S733        H736   1.407       .  S
S734        H735   1.408       .  S
C739        C740   1.404   1_556  A
C739        C744   1.427       .  A
C740        C741   1.416   1_554  A
C740        H749   1.082       .  S
C741        C742   1.422       .  A
C741        S745   1.791   1_556  S
C742        C743   1.407       .  A
C743        C744   1.412       .  A
C743        H750   1.081       .  S
C744        S746   1.810       .  S
S745        H748   1.407       .  S
S746        H747   1.407       .  S
C751        C752   1.412       .  A
C751        C756   1.416       .  A
C752        C753   1.418   1_545  A
C752        H761   1.077   1_545  S
C753        C754   1.416   1_565  A
C753        S757   1.806       .  S
C754        C755   1.412       .  A
C755        C756   1.403       .  A
C755        H762   1.081       .  S
C756        S758   1.810       .  S
S757        H760   1.406       .  S
S758        H759   1.407       .  S
C763        C764   1.405   1_565  A
C763        C768   1.414       .  A
C764        C765   1.413   1_545  A
C764        H773   1.082       .  S
C765        C766   1.418       .  A
C765        S769   1.793   1_565  S
C766        C767   1.411       .  A
C767        C768   1.399       .  A
C767        H774   1.082       .  S
C768        S770   1.805       .  S
S769        H772   1.407       .  S
S770        H771   1.408       .  S
C775        C776   1.411       .  A
C775        C780   1.420       .  A
C776        C777   1.418   1_554  A
C776        H785   1.081   1_554  S
C777        C778   1.419   1_556  A
C777        S781   1.806       .  S
C778        C779   1.408       .  A
C779        C780   1.404       .  A
C779        H786   1.081       .  S
C780        S782   1.810       .  S
S781        H784   1.406       .  S
S782        H783   1.407       .  S
C787        C788   1.408       .  A
C787        C792   1.417       .  A
C788        C789   1.419   1_556  A
C788        H797   1.079   1_556  S
C789        C790   1.419   1_554  A
C789        S793   1.806       .  S
C790        C791   1.408       .  A
C791        C792   1.405       .  A
C791        H798   1.082       .  S
C792        S794   1.810       .  S
S793        H796   1.406       .  S
S794        H795   1.406       .  S
C799        C800   1.409       .  A
C799        C804   1.418       .  A
C800        C801   1.406   1_455  A
C800        H809   1.084   1_455  S
C801        C802   1.417       .  A
C801        S805   1.802       .  S
C802        C803   1.407   1_655  A
C803        C804   1.399       .  A
C803        H810   1.081       .  S
C804        S806   1.812       .  S
S805        H808   1.404       .  S
S806        H807   1.406       .  S
C811        C812   1.415       .  A
C811        C816   1.417       .  A
C812        C813   1.401       .  A
C812        H821   1.081       .  S
C813        C814   1.400       .  A
C813        S817   1.806       .  S
C814        C815   1.402       .  A
C815        C816   1.404       .  A
C815        H822   1.083   1_545  S
C816        S818   1.805   1_545  S
S817        H820   1.407       .  S
S818        H819   1.407       .  S
C823        C824   1.412       .  A
C823        C828   1.418       .  A
C824        C825   1.402       .  A
C824        H833   1.082       .  S
C825        C826   1.403       .  A
C825        S829   1.803       .  S
C826        C827   1.404       .  A
C827        C828   1.407       .  A
C827        H834   1.083   1_556  S
C828        S830   1.808   1_556  S
S829        H832   1.407       .  S
S830        H831   1.407       .  S
C835        C836   1.408       .  A
C835        C840   1.417       .  A
C836        C837   1.402       .  A
C836        H845   1.082       .  S
C837        C838   1.412       .  A
C837        S841   1.809       .  S
C838        C839   1.403       .  A
C839        C840   1.404       .  A
C839        H846   1.080       .  S
C840        S842   1.808       .  S
S841        H844   1.407       .  S
S842        H843   1.407       .  S
C847        C848   1.410       .  A
C847        C852   1.420       .  A
C848        C849   1.399       .  A
C848        H857   1.082       .  S
C849        C850   1.410       .  A
C849        S853   1.810       .  S
C850        C851   1.403       .  A
C851        C852   1.403       .  A
C851        H858   1.084       .  S
C852        S854   1.801       .  S
S853        H856   1.407       .  S
S854        H855   1.407       .  S
C859        C860   1.412       .  A
C859        C864   1.421       .  A
C860        C861   1.401       .  A
C860        H869   1.081       .  S
C861        C862   1.409       .  A
C861        S865   1.809       .  S
C862        C863   1.404       .  A
C863        C864   1.404       .  A
C863        H870   1.083       .  S
C864        S866   1.811       .  S
S865        H868   1.407       .  S
S866        H867   1.407       .  S
C871        C872   1.414   1_556  A
C871        C876   1.404       .  A
C872        C873   1.418   1_554  A
C872        H881   1.083       .  S
C873        C874   1.417       .  A
C873        S877   1.796   1_556  S
C874        C875   1.416       .  A
C875        C876   1.397       .  A
C875        H882   1.079       .  S
C876        S878   1.803       .  S
S877        H880   1.407       .  S
S878        H879   1.408       .  S
C883        C884   1.410       .  A
C883        C888   1.422       .  A
C884        C885   1.403       .  A
C884        H893   1.080       .  S
C885        C886   1.416   1_655  A
C885        S889   1.812       .  S
C886        C887   1.408       .  A
C887        C888   1.413   1_455  A
C887        H894   1.082       .  S
C888        S890   1.805   1_655  S
S889        H892   1.407       .  S
S890        H891   1.407       .  S
C895        C896   1.410       .  A
C895        C900   1.419       .  A
C896        C897   1.404       .  A
C896        H905   1.082       .  S
C897        C898   1.414       .  A
C897        S901   1.809       .  S
C898        C899   1.403       .  A
C899        C900   1.398       .  A
C899        H906   1.084       .  S
C900        S902   1.800       .  S
S901        H904   1.406       .  S
S902        H903   1.407       .  S
C907        C908   1.406       .  A
C907        C912   1.412       .  A
C908        C909   1.408       .  A
C908        H917   1.082       .  S
C909        C910   1.419       .  A
C909        S913   1.808       .  S
C910        C911   1.409       .  A
C911        C912   1.399       .  A
C911        H918   1.081       .  S
C912        S914   1.811       .  S
S913        H916   1.407       .  S
S914        H915   1.406       .  S
C919        C920   1.405       .  A
C919        C924   1.405       .  A
C920        C921   1.409       .  A
C920        H929   1.083   1_565  S
C921        C922   1.414       .  A
C921        S925   1.806       .  S
C922        C923   1.409       .  A
C923        C924   1.400       .  A
C923        H930   1.082       .  S
C924        S926   1.805       .  S
S925        H928   1.407   1_565  S
S926        H927   1.407       .  S
C931        C932   1.398       .  A
C931        C936   1.408       .  A
C932        C933   1.406       .  A
C932        H941   1.083       .  S
C933        C934   1.426       .  A
C933        S937   1.810       .  S
C934        C935   1.411       .  A
C935        C936   1.398       .  A
C935        H942   1.081       .  S
C936        S938   1.805       .  S
S937        H940   1.407       .  S
S938        H939   1.406       .  S
C943        C944   1.410       .  A
C943        C948   1.424       .  A
C944        C945   1.418       .  A
C944        H953   1.082       .  S
C945        C946   1.420       .  A
C945        S949   1.804       .  S
C946        C947   1.407       .  A
C947        C948   1.405       .  A
C947        H954   1.080       .  S
C948        S950   1.813       .  S
S949        H952   1.407       .  S
S950        H951   1.407       .  S
C955        C956   1.413       .  A
C955        C960   1.419       .  A
C956        C957   1.407       .  A
C956        H965   1.080       .  S
C957        C958   1.416       .  A
C957        S961   1.810       .  S
C958        C959   1.412       .  A
C959        C960   1.414       .  A
C959        H966   1.082       .  S
C960        S962   1.805       .  S
S961        H964   1.406       .  S
S962        H963   1.407       .  S
C967        C968   1.396       .  A
C967        C972   1.419       .  A
C968        C969   1.403       .  A
C968        H977   1.083       .  S
C969        C970   1.428       .  A
C969        S973   1.803       .  S
C970        C971   1.412       .  A
C971        C972   1.418       .  A
C971        H978   1.083       .  S
C972        S974   1.800       .  S
S973        H976   1.407       .  S
S974        H975   1.404       .  S
C979        C980   1.409       .  A
C979        C984   1.416       .  A
C980        C981   1.403       .  A
C980        H989   1.081       .  S
C981        C982   1.417       .  A
C981        S985   1.804       .  S
C982        C983   1.406       .  A
C983        C984   1.412       .  A
C983        H990   1.083       .  S
C984        S986   1.779       .  S
S985        H988   1.407       .  S
S986        H987   1.408       .  S
C991        C992   1.412       .  A
C991        C996   1.420       .  A
C992        C993   1.419       .  A
C992       H1001   1.081       .  S
C993        C994   1.414       .  A
C993        S997   1.799       .  S
C994        C995   1.403       .  A
C995        C996   1.401       .  A
C995       H1002   1.077       .  S
C996        S998   1.808       .  S
S997       H1000   1.406       .  S
S998        H999   1.407       .  S
C1003      C1004   1.410       .  A
C1003      C1008   1.405       .  A
C1004      C1005   1.418       .  A
C1004      H1013   1.084       .  S
C1005      C1006   1.426       .  A
C1005      S1009   1.802       .  S
C1006      C1007   1.404       .  A
C1007      C1008   1.405       .  A
C1007      H1014   1.079       .  S
C1008      S1010   1.785   1_556  S
S1009      H1012   1.395       .  S
S1010      H1011   1.407       .  S
C1015      C1016   1.399       .  A
C1015      C1020   1.410       .  A
C1016      C1017   1.404       .  A
C1016      H1025   1.083       .  S
C1017      C1018   1.421       .  A
C1017      S1021   1.811       .  S
C1018      C1019   1.407       .  A
C1019      C1020   1.408       .  A
C1019      H1026   1.083       .  S
C1020      S1022   1.807       .  S
S1021      H1024   1.407       .  S
S1022      H1023   1.407       .  S
C1027      C1028   1.403       .  A
C1027      C1032   1.407       .  A
C1028      C1029   1.407       .  A
C1028      H1037   1.083       .  S
C1029      C1030   1.419       .  A
C1029      S1033   1.808       .  S
C1030      C1031   1.410       .  A
C1031      C1032   1.401       .  A
C1031      H1038   1.082       .  S
C1032      S1034   1.801       .  S
S1033      H1036   1.407       .  S
S1034      H1035   1.406       .  S
C1039      C1040   1.406       .  A
C1039      C1044   1.417       .  A
C1040      C1041   1.401       .  A
C1040      H1049   1.082       .  S
C1041      C1042   1.416       .  A
C1041      S1045   1.810       .  S
C1042      C1043   1.408       .  A
C1043      C1044   1.412       .  A
C1043      H1050   1.084       .  S
C1044      S1046   1.803       .  S
S1045      H1048   1.407       .  S
S1046      H1047   1.407       .  S
C1051      C1052   1.394       .  A
C1051      C1056   1.406       .  A
C1052      C1053   1.387       .  A
C1052      H1061   1.086   1_655  S
C1053      C1054   1.413       .  A
C1053      S1057   1.800   1_655  S
C1054      C1055   1.410       .  A
C1055      C1056   1.402       .  A
C1055      H1062   1.084       .  S
C1056      S1058   1.803       .  S
S1057      H1060   1.406       .  S
S1058      H1059   1.406       .  S
C1063      C1064   1.406       .  A
C1063      C1068   1.417       .  A
C1064      C1065   1.417       .  A
C1064      H1073   1.082       .  S
C1065      C1066   1.424       .  A
C1065      S1069   1.807       .  S
C1066      C1067   1.406       .  A
C1067      C1068   1.404       .  A
C1067      H1074   1.081       .  S
C1068      S1070   1.804       .  S
S1069      H1072   1.407       .  S
S1070      H1071   1.407       .  S
C1075      C1076   1.411       .  A
C1075      C1080   1.423       .  A
C1076      C1077   1.402       .  A
C1076      H1085   1.081       .  S
C1077      C1078   1.412       .  A
C1077      S1081   1.811       .  S
C1078      C1079   1.403       .  A
C1079      C1080   1.411       .  A
C1079      H1086   1.082   1_655  S
C1080      S1082   1.801   1_655  S
S1081      H1084   1.406       .  S
S1082      H1083   1.405       .  S
C1087      C1088   1.409       .  A
C1087      C1092   1.422       .  A
C1088      C1089   1.402       .  A
C1088      H1097   1.084       .  S
C1089      C1090   1.416       .  A
C1089      S1093   1.801       .  S
C1090      C1091   1.395       .  A
C1091      C1092   1.392       .  A
C1091      H1098   1.084       .  S
C1092      S1094   1.802       .  S
S1093      H1096   1.407       .  S
S1094      H1095   1.407       .  S
C1099      C1100   1.405       .  A
C1099      C1104   1.424       .  A
C1100      C1101   1.397       .  A
C1100      H1109   1.084       .  S
C1101      C1102   1.419       .  A
C1101      S1105   1.803       .  S
C1102      C1103   1.406       .  A
C1103      C1104   1.412       .  A
C1103      H1110   1.082       .  S
C1104      S1106   1.809       .  S
S1105      H1108   1.408       .  S
S1106      H1107   1.407       .  S
C1111      C1112   1.408       .  A
C1111      C1116   1.423       .  A
C1112      C1113   1.402       .  A
C1112      H1121   1.082       .  S
C1113      C1114   1.413       .  A
C1113      S1117   1.811       .  S
C1114      C1115   1.403       .  A
C1115      C1116   1.410       .  A
C1115      H1122   1.084       .  S
C1116      S1118   1.801       .  S
S1117      H1120   1.407       .  S
S1118      H1119   1.407       .  S
C1123      C1124   1.394       .  A
C1123      C1128   1.415       .  A
C1124      C1125   1.397       .  A
C1124      H1133   1.084       .  S
C1125      C1126   1.424       .  A
C1125      S1129   1.811       .  S
C1126      C1127   1.408       .  A
C1127      C1128   1.412       .  A
C1127      H1134   1.083       .  S
C1128      S1130   1.804       .  S
S1129      H1132   1.407       .  S
S1130      H1131   1.404       .  S
C1135      C1136   1.414       .  A
C1135      C1140   1.422       .  A
C1136      C1137   1.414       .  A
C1136      H1145   1.082       .  S
C1137      C1138   1.414       .  A
C1137      S1141   1.806       .  S
C1138      C1139   1.408       .  A
C1139      C1140   1.400       .  A
C1139      H1146   1.081       .  S
C1140      S1142   1.814       .  S
S1141      H1144   1.405       .  S
S1142      H1143   1.406       .  S
C1147      C1148   1.405       .  A
C1147      C1152   1.415       .  A
C1148      C1149   1.402       .  A
C1148      H1157   1.082       .  S
C1149      C1150   1.427       .  A
C1149      S1153   1.813       .  S
C1150      C1151   1.414       .  A
C1151      C1152   1.415       .  A
C1151      H1158   1.082       .  S
C1152      S1154   1.806       .  S
S1153      H1156   1.407       .  S
S1154      H1155   1.402       .  S
C1159      C1160   1.409       .  A
C1159      C1164   1.421       .  A
C1160      C1161   1.396       .  A
C1160      H1169   1.083       .  S
C1161      C1162   1.415       .  A
C1161      S1165   1.806       .  S
C1162      C1163   1.411       .  A
C1163      C1164   1.417       .  A
C1163      H1170   1.083       .  S
C1164      S1166   1.799       .  S
S1165      H1168   1.408       .  S
S1166      H1167   1.406       .  S
C1171      C1172   1.412       .  A
C1171      C1176   1.421       .  A
C1172      C1173   1.403       .  A
C1172      H1181   1.081       .  S
C1173      C1174   1.413       .  A
C1173      S1177   1.812       .  S
C1174      C1175   1.411       .  A
C1175      C1176   1.419       .  A
C1175      H1182   1.083       .  S
C1176      S1178   1.798       .  S
S1177      H1180   1.406       .  S
S1178      H1179   1.407       .  S
C1183      C1184   1.409       .  A
C1183      C1188   1.423       .  A
C1184      C1185   1.414       .  A
C1184      H1193   1.084       .  S
C1185      C1186   1.416       .  A
C1185      S1189   1.797       .  S
C1186      C1187   1.397       .  A
C1187      C1188   1.396       .  A
C1187      H1194   1.081       .  S
C1188      S1190   1.805       .  S
S1189      H1192   1.405       .  S
S1190      H1191   1.407       .  S
C1195      C1196   1.415       .  A
C1195      C1200   1.417       .  A
C1196      C1197   1.406       .  A
C1196      H1205   1.081       .  S
C1197      C1198   1.413       .  A
C1197      S1201   1.809       .  S
C1198      C1199   1.408       .  A
C1199      C1200   1.408       .  A
C1199      H1206   1.082       .  S
C1200      S1202   1.797       .  S
S1201      H1204   1.407       .  S
S1202      H1203   1.406       .  S
C1207      C1208   1.400       .  A
C1207      C1212   1.409       .  A
C1208      C1209   1.410       .  A
C1208      H1217   1.083       .  S
C1209      C1210   1.426       .  A
C1209      S1213   1.810       .  S
C1210      C1211   1.409       .  A
C1211      C1212   1.406       .  A
C1211      H1218   1.082       .  S
C1212      S1214   1.807       .  S
S1213      H1216   1.407       .  S
S1214      H1215   1.407       .  S
C1219      C1220   1.405       .  A
C1219      C1224   1.411       .  A
C1220      C1221   1.408       .  A
C1220      H1229   1.084       .  S
C1221      C1222   1.419       .  A
C1221      S1225   1.802       .  S
C1222      C1223   1.410       .  A
C1223      C1224   1.405       .  A
C1223      H1230   1.084       .  S
C1224      S1226   1.800       .  S
S1225      H1228   1.407       .  S
S1226      H1227   1.406       .  S
