geometry optimzed in LAMMPS
_audit_creation_date              2020-11-30 
_audit_creation_method            'lammps2cif' 
_symmetry_space_group_name_H-M    'P1' 
_symmetry_Int_Tables_number       1 
_symmetry_cell_setting            triclinic 
loop_ 
_symmetry_equiv_pos_as_xyz 
  x,y,z 
_cell_length_a                    33.00093104206762 
_cell_length_b                    32.99701977706586 
_cell_length_c                    33.00322056941491 
_cell_angle_alpha                 89.9918642362918 
_cell_angle_beta                  90.01392088992398 
_cell_angle_gamma                 90.0186469796846 
loop_ 
_atom_site_label 
_atom_site_type_symbol 
_atom_site_fract_x 
_atom_site_fract_y 
_atom_site_fract_z 
_atom_site_charge 
O1          O  0.72232557  0.71024219  0.19057181    -0.86420
C2          C  0.72928983  0.68110026  0.30886572     0.89610
Mg3        Mg  0.77498598  0.72381530  0.15629018     1.58150
O4          O  0.69069699  0.77732464  0.28928508    -0.86150
O5          O  0.66443583  0.73849857  0.20764587    -0.73480
C6          C  0.87763910  0.84831157  0.27493857     0.94660
O7          O  0.79224018  0.66395783  0.23877150    -0.73300
O8          O  0.88175827  0.82764689  0.24274453    -0.80800
Mg9        Mg  0.72424487  0.65598107  0.22495942     1.57960
C10         C  0.72506265  0.87727763  0.34854541     0.94580
O11         O  0.65670247  0.64486283  0.20833237    -0.79060
H12         H  0.65041772  0.81296136  0.26123199    -0.04410
C13         C  0.80904204  0.77040321  0.31840737     0.89520
O14         O  0.76132297  0.79183348  0.16419126    -0.73580
O15         O  0.71062166  0.69027814  0.27756694    -0.86340
O16         O  0.70859146  0.84290725  0.35468581    -0.79150
C17         C  0.65150406  0.72447830  0.37753589     0.94700
C18         C  0.62233169  0.65092638  0.22479695     0.94550
Mg19       Mg  0.77578232  0.84322461  0.27469980     1.57950
O20         O  0.84324975  0.85440833  0.29133612    -0.79070
O21         O  0.70781196  0.83516625  0.26091167    -0.73310
O22         O  0.64538177  0.70800313  0.34317326    -0.79150
O23         O  0.74276054  0.61790209  0.17180778    -0.80860
O24         O  0.85516324  0.79082952  0.15659424    -0.79180
C25         C  0.68152666  0.80860998  0.27058692     0.88990
O26         O  0.78952736  0.80890838  0.22210371    -0.86320
O27         O  0.77774097  0.78903676  0.30918834    -0.86430
O28         O  0.83562350  0.76076732  0.29215941    -0.73490
Mg29       Mg  0.65640463  0.72468266  0.27562785     1.57970
O30         O  0.67199342  0.75681073  0.38154220    -0.80860
H31         H  0.68668600  0.73828910  0.15028213    -0.04590
O32         O  0.80940857  0.72183858  0.21052114    -0.86130
H33         H  0.84964660  0.68614026  0.23855992    -0.04410
H34         H  0.76168259  0.84923921  0.18635940    -0.04590
C35         C  0.81854798  0.69052435  0.22918383     0.88960
C36         C  0.69103071  0.72891104  0.18138482     0.89550
C37         C  0.77095380  0.81811160  0.19076014     0.89590
H38         H  0.81339688  0.76108424  0.34952702    -0.04570
O39         O  0.73890479  0.70737686  0.33544639    -0.73590
Mg40       Mg  0.84373655  0.77445237  0.22417540     1.58000
H41         H  0.73864851  0.64999283  0.31322101    -0.04580
C42         C  0.77502455  0.62194103  0.15124108     0.94580
O43         O  0.82818305  0.74217571  0.11827647    -0.80820
C44         C  0.84908901  0.77423238  0.12227543     0.94640
O45         O  0.61829399  0.67152328  0.25704456    -0.80810
Mg46       Mg  0.72514176  0.77536829  0.34348908     1.58180
O47         O  0.79152740  0.65630312  0.14519565    -0.79140
O48         O  0.75721620  0.88132521  0.32780857    -0.80830
O49         O  0.67679464  0.24258289  0.73060524    -0.86420
C50         C  0.76261107  0.15746843  0.74715806     0.89610
Mg51       Mg  0.68295522  0.28933466  0.68699798     1.58150
O52         O  0.75757561  0.22998585  0.82356515    -0.86150
O53         O  0.66724090  0.23659354  0.79630506    -0.73480
C54         C  0.87137271  0.35372523  0.71340954     0.94660
O55         O  0.73768674  0.20338211  0.66642936    -0.73300
O56         O  0.84340309  0.35587638  0.68703791    -0.80800
Mg57       Mg  0.68753355  0.18219995  0.71015261     1.57960
C58         C  0.85395054  0.28646189  0.87097840     0.94580
O59         O  0.63519824  0.16041817  0.75137691    -0.79060
H60         H  0.72524534  0.25945168  0.86554857    -0.04410
C61         C  0.84263632  0.24739488  0.73782903     0.89520
O62         O  0.70391904  0.33303606  0.73722195    -0.73580
O63         O  0.73125151  0.17581419  0.75672380    -0.86340
O64         O  0.83971716  0.25099239  0.86510870    -0.79150
C65         C  0.78773765  0.12806182  0.85304122     0.94700
C66         C  0.62943406  0.14587521  0.78672283     0.94550
Mg67       Mg  0.81315518  0.31706968  0.78965496     1.57950
O68         O  0.86544705  0.33922176  0.74873159    -0.79070
O69         O  0.76301460  0.29572011  0.83324621    -0.73310
O70         O  0.75229129  0.13386470  0.83873021    -0.79150
O71         O  0.64442786  0.18660757  0.65690393    -0.80860
O72         O  0.74882476  0.36510011  0.66081263    -0.79180
C73         C  0.74800568  0.26127268  0.84203695     0.88990
O74         O  0.76960821  0.32337450  0.74294964    -0.86320
O75         O  0.82414279  0.25672144  0.76916981    -0.86430
O76         O  0.83381395  0.26261821  0.70349192    -0.73490
Mg77       Mg  0.71098437  0.18631311  0.81719247     1.57970
O78         O  0.81386611  0.15625028  0.85543436    -0.80860
H79         H  0.63490799  0.27471840  0.76042828    -0.04590
O80         O  0.74340753  0.26909296  0.67615177    -0.86130
H81         H  0.77560961  0.23951741  0.63414194    -0.04410
H82         H  0.74000355  0.36535533  0.77516388    -0.04590
C83         C  0.75285694  0.23777408  0.65766703     0.88960
C84         C  0.65841086  0.25192865  0.76200978     0.89550
C85         C  0.73828627  0.34183788  0.75239584     0.89590
H86         H  0.86620348  0.22467811  0.73949984    -0.04570
O87         O  0.79698841  0.16629350  0.76230978    -0.73590
Mg88       Mg  0.79005430  0.31277801  0.68252750     1.58000
H89         H  0.76091475  0.13402909  0.72430781    -0.04580
C90         C  0.64682254  0.21277375  0.62877492     0.94580
O91         O  0.68723686  0.34277911  0.64405721    -0.80820
C92         C  0.71342373  0.37091008  0.64641907     0.94640
O93         O  0.65764009  0.14328093  0.81279119    -0.80810
Mg94       Mg  0.81802408  0.20986404  0.81264178     1.58180
O95         O  0.66124522  0.24817038  0.63458652    -0.79140
O96         O  0.85613745  0.31272708  0.84293333    -0.80830
O97         O  0.80988081  0.77723961  0.70988806    -0.86420
C98         C  0.69141770  0.77022878  0.68127977     0.89610
Mg99       Mg  0.84407525  0.72458624  0.72356364     1.58150
O100        O  0.71122358  0.80910651  0.77732953    -0.86150
O101        O  0.79285638  0.83512269  0.73822224    -0.73480
C102        C  0.72598779  0.62246966  0.84905443     0.94660
O103        O  0.76138638  0.70718895  0.66401142    -0.73300
O104        O  0.75795556  0.61836803  0.82806275    -0.80800
Mg105      Mg  0.77522939  0.77514643  0.65581353     1.57960
C106        C  0.65205280  0.77506030  0.87753645     0.94580
O107        O  0.79190625  0.84261985  0.64452390    -0.79060
H108        H  0.73920432  0.84959215  0.81280396    -0.04410
C109        C  0.68194611  0.69074708  0.77086475     0.89520
O110        O  0.83627149  0.73859445  0.79154899    -0.73580
O111        O  0.72276843  0.78889032  0.69031481    -0.86340
O112        O  0.64583927  0.79143292  0.84313259    -0.79150
C113        C  0.62298595  0.84830482  0.72454172     0.94700
C114        C  0.77549223  0.87700684  0.65061866     0.94550
Mg115      Mg  0.72589720  0.72431866  0.84347040     1.57950
O116        O  0.70948001  0.65682504  0.85509361    -0.79070
O117        O  0.73959957  0.79227912  0.83521615    -0.73310
O118        O  0.65733833  0.85430247  0.70801735    -0.79150
O119        O  0.82820509  0.75645807  0.61754320    -0.80860
O120        O  0.84373551  0.64519083  0.79121167    -0.79180
C121        C  0.72989942  0.81844592  0.80856918     0.88990
O122        O  0.77834679  0.71057476  0.80894459    -0.86320
O123        O  0.69119415  0.72210380  0.78940653    -0.86430
O124        O  0.70819234  0.66417589  0.76117721    -0.73490
Mg125      Mg  0.72485204  0.84319951  0.72456978     1.57970
O126        O  0.61895928  0.82788761  0.75691189    -0.80860
H127        H  0.85023207  0.81290559  0.73782867    -0.04590
O128        O  0.78973401  0.69031805  0.72191057    -0.86130
H129        H  0.76163792  0.64988669  0.68646638    -0.04410
H130        H  0.81422210  0.73867455  0.84899241    -0.04590
C131        C  0.77101789  0.68101185  0.69068124     0.88960
C132        C  0.81910319  0.80854693  0.72853402     0.89550
C133        C  0.80973322  0.72919407  0.81794338     0.89590
H134        H  0.65079821  0.68634290  0.76165549    -0.04570
O135        O  0.66488551  0.76073996  0.70764577    -0.73590
Mg136      Mg  0.77622460  0.65623019  0.77472058     1.58000
H137        H  0.68697216  0.76076311  0.65022081    -0.04580
C138        C  0.84885782  0.72424191  0.62158063     0.94580
O139        O  0.88203472  0.67136643  0.74214253    -0.80820
C140        C  0.87805696  0.65108638  0.77460123     0.94640
O141        O  0.74330603  0.88110076  0.67128547    -0.80810
Mg142      Mg  0.65695637  0.77472093  0.77559866     1.58180
O143        O  0.85502857  0.70782116  0.65597279    -0.79140
O144        O  0.67288546  0.74297128  0.88165208    -0.80830
C145        C  0.45635250  0.37630504  0.24140468     0.05050
C146        C  0.42603587  0.37718870  0.27119017    -0.11100
C147        C  0.43673782  0.37466842  0.31262427     0.02550
C148        C  0.47813105  0.37191200  0.32347935    -0.09620
C149        C  0.50802429  0.37232784  0.29323854     0.05040
C150        C  0.49684756  0.37418888  0.25269904    -0.09040
H151        H  0.39449862  0.37934016  0.26228331     0.10640
H152        H  0.48692294  0.36997562  0.35506083     0.08170
H153        H  0.52016647  0.37403380  0.22944057     0.08020
C154        C  0.37253168  0.29344574  0.50796807     0.05050
C155        C  0.37158842  0.32373616  0.47811024    -0.11100
C156        C  0.37411536  0.31296979  0.43668693     0.02550
C157        C  0.37693866  0.27154057  0.42593695    -0.09620
C158        C  0.37657530  0.24168544  0.45623414     0.05040
C159        C  0.37467124  0.25292967  0.49674321    -0.09040
H160        H  0.36949976  0.35529459  0.48695392     0.10640
H161        H  0.37899371  0.26269183  0.39438363     0.08170
H162        H  0.37492118  0.22964296  0.52004593     0.08020
C163        C  0.40482087  0.37490451  0.34438611     0.05050
C164        C  0.40435244  0.34495333  0.37468858    -0.11100
C165        C  0.37421285  0.34483112  0.40480948     0.02550
C166        C  0.34428200  0.37521076  0.40438526    -0.09620
C167        C  0.34428706  0.40545244  0.37430129     0.05040
C168        C  0.37468066  0.40502583  0.34443602    -0.09040
H169        H  0.42750436  0.32166218  0.37481890     0.10640
H170        H  0.32095727  0.37531911  0.42749617     0.08170
H171        H  0.37486718  0.42819318  0.32115245     0.08020
C172        C  0.24138742  0.45738047  0.37483179     0.05050
C173        C  0.27107782  0.42694432  0.37610559    -0.11100
C174        C  0.31256668  0.43747642  0.37393990     0.02550
C175        C  0.32355570  0.47884907  0.37130979    -0.09620
C176        C  0.29343822  0.50890871  0.37130340     0.05040
C177        C  0.25282846  0.49788801  0.37264503    -0.09040
H178        H  0.26205050  0.39543903  0.37830908     0.10640
H179        H  0.35520074  0.48752134  0.36987475     0.08170
H180        H  0.22968537  0.52131127  0.37234410     0.08020
O181        O  0.96130395  0.47202210  0.55931271    -0.86420
C182        C  0.93135100  0.47936486  0.44111506     0.89610
Mg183      Mg  0.97528544  0.52445478  0.59380458     1.58150
O184        O  0.02760763  0.44037463  0.45992677    -0.86150
O185        O  0.98921496  0.41409592  0.54180226    -0.73480
C186        C  0.09923387  0.62704335  0.47455238     0.94660
O187        O  0.91494176  0.54227695  0.51166876    -0.73300
O188        O  0.07884396  0.63116632  0.50691580    -0.80800
Mg189      Mg  0.90687739  0.47425352  0.52521262     1.57960
C190        C  0.12715066  0.47500333  0.40003793     0.94580
O191        O  0.89560458  0.40680316  0.54167455    -0.79060
H192        H  0.06331769  0.39990064  0.48760536    -0.04410
C193        C  0.02070541  0.55890836  0.43143127     0.89520
O194        O  0.04317747  0.51062516  0.58533567    -0.73580
O195        O  0.94075503  0.46066075  0.47231741    -0.86340
O196        O  0.09275038  0.45854296  0.39404199    -0.79150
C197        C  0.97422190  0.40138651  0.37195045     0.94700
C198        C  0.90137366  0.37246172  0.52507287     0.94550
Mg199      Mg  0.09373183  0.52526423  0.47449625     1.57950
O200        O  0.10502789  0.59268132  0.45800643    -0.79070
O201        O  0.08562344  0.45725897  0.48806471    -0.73310
O202        O  0.95794914  0.39523102  0.40640524    -0.79150
O203        O  0.86926964  0.49252814  0.57865906    -0.80860
O204        O  0.04259777  0.60441008  0.59325480    -0.79180
C205        C  0.05897479  0.43106163  0.47840975     0.88990
O206        O  0.05984060  0.53891523  0.52736822    -0.86320
O207        O  0.03932551  0.52751461  0.44036873    -0.86430
O208        O  0.01137798  0.58543031  0.45785907    -0.73490
Mg209      Mg  0.97494395  0.40627080  0.47388350     1.57970
O210        O  0.00636151  0.42213799  0.36773229    -0.80860
H211        H  0.98950132  0.43611641  0.59925624    -0.04590
O212        O  0.97297477  0.55918239  0.53975572    -0.86130
H213        H  0.93722565  0.59964538  0.51211254    -0.04410
H214        H  0.10039507  0.51088547  0.56271601    -0.04590
C215        C  0.94158941  0.56848494  0.52129941     0.88960
C216        C  0.97991778  0.44062130  0.56823851     0.89550
C217        C  0.06925900  0.52024544  0.55858506     0.89590
H218        H  0.01113161  0.56340244  0.40040936    -0.04570
O219        O  0.95743709  0.48897667  0.41436368    -0.73590
Mg220      Mg  0.02563320  0.59329711  0.52576922     1.58000
H221        H  0.90022351  0.48875840  0.43699581    -0.04580
C222        C  0.87347031  0.52444938  0.59970612     0.94580
O223        O  0.99421026  0.57744662  0.63192591    -0.80820
C224        C  0.02631443  0.59825330  0.62770679     0.94640
O225        O  0.92173056  0.36838943  0.49268489    -0.80810
Mg226      Mg  0.02532344  0.47510026  0.40587822     1.58180
O227        O  0.90785371  0.54095563  0.60566875    -0.79140
O228        O  0.13136926  0.50692634  0.42108090    -0.80830
O229        O  0.55963121  0.95987706  0.47243671    -0.86420
C230        C  0.44115835  0.93120823  0.47958835     0.89610
Mg231      Mg  0.59385611  0.97378252  0.52502937     1.58150
O232        O  0.46098131  0.02726347  0.44061018    -0.86150
O233        O  0.54259065  0.98809617  0.41451845    -0.73480
C234        C  0.47578967  0.09928377  0.62708155     0.94660
O235        O  0.51127203  0.91412216  0.54264418    -0.73300
O236        O  0.50773208  0.07825427  0.63119140    -0.80800
Mg237      Mg  0.52497439  0.90576779  0.47470853     1.57960
C238        C  0.40166231  0.12748335  0.47446615     0.94580
O239        O  0.54134870  0.89404862  0.40722503    -0.79060
H240        H  0.48889396  0.06272067  0.40006741    -0.04410
C241        C  0.43171688  0.02094122  0.55892215     0.89520
O242        O  0.58593023  0.04173184  0.51092883    -0.73580
O243        O  0.47248924  0.94021576  0.46089782    -0.86340
O244        O  0.39550189  0.09304087  0.45815139    -0.79150
C245        C  0.37280378  0.97448607  0.40128531     0.94700
C246        C  0.52481662  0.90009075  0.37287295     0.94550
Mg247      Mg  0.47558654  0.09357718  0.52526001     1.57950
O248        O  0.45923180  0.10529750  0.59273854    -0.79070
O249        O  0.48926528  0.08523667  0.45732497    -0.73310
O250        O  0.40715608  0.95797576  0.39535404    -0.79150
O251        O  0.57802748  0.86764885  0.49344940    -0.80860
O252        O  0.59345945  0.04139435  0.60456836    -0.79180
C253        C  0.47960628  0.05852166  0.43121402     0.88990
O254        O  0.52808160  0.05912876  0.53905779    -0.86320
O255        O  0.44093476  0.03946428  0.52755229    -0.86430
O256        O  0.45798840  0.01128694  0.58548778    -0.73490
Mg257      Mg  0.47458776  0.97447501  0.40655884     1.57970
O258        O  0.36870466  0.00675496  0.42183743    -0.80860
H259        H  0.59999588  0.98765423  0.43667763    -0.04590
O260        O  0.53957131  0.97208550  0.55937467    -0.86130
H261        H  0.51161421  0.93664432  0.59990056    -0.04410
H262        H  0.56387154  0.09917672  0.51085066    -0.04590
C263        C  0.52092397  0.94083675  0.56875983     0.88960
C264        C  0.56885589  0.97842120  0.44108155     0.89550
C265        C  0.55941872  0.06812747  0.52037376     0.89590
H266        H  0.40057747  0.01171368  0.56333980    -0.04570
O267        O  0.41465058  0.95759742  0.48905861    -0.73590
Mg268      Mg  0.52600329  0.02489797  0.59341207     1.58000
H269        H  0.43671375  0.90015578  0.48910432    -0.04580
C270        C  0.59886231  0.87183806  0.52553392     0.94580
O271        O  0.63184656  0.99252468  0.57816558    -0.80820
C272        C  0.62779410  0.02483822  0.59865321     0.94640
O273        O  0.49289430  0.92114878  0.36875370    -0.80810
Mg274      Mg  0.40669921  0.02553792  0.47496667     1.58180
O275        O  0.60501979  0.90627788  0.54185390    -0.79140
O276        O  0.42251678  0.13168090  0.50653710    -0.80830
C277        C  0.65633688  0.59380948  0.62557744     0.05050
C278        C  0.62594288  0.59422224  0.65543968    -0.11100
C279        C  0.59580481  0.62434052  0.65549870     0.02550
C280        C  0.59627904  0.65431494  0.62521875    -0.09620
C281        C  0.62642509  0.65446044  0.59510333     0.05040
C282        C  0.65635159  0.62407410  0.59551256    -0.09040
H283        H  0.62574698  0.57104020  0.67870876     0.10640
H284        H  0.57311761  0.67759674  0.62509503     0.08170
H285        H  0.67968039  0.62397861  0.57240594     0.08020
C286        C  0.54410287  0.62280869  0.75839584     0.05050
C287        C  0.57448149  0.62202392  0.72866731    -0.11100
C288        C  0.56384570  0.62450883  0.68721230     0.02550
C289        C  0.52246768  0.62712745  0.67627824    -0.09620
C290        C  0.49252230  0.62660426  0.70646037     0.05040
C291        C  0.50362484  0.62478407  0.74702061    -0.09040
H292        H  0.60600927  0.61997061  0.73763050     0.10640
H293        H  0.51372961  0.62903631  0.64468008     0.08170
H294        H  0.48025888  0.62486474  0.77023271     0.08020
C295        C  0.62400759  0.75764215  0.54373910     0.05050
C296        C  0.62595489  0.74642715  0.50322392    -0.11100
C297        C  0.62814473  0.70592166  0.49197285     0.02550
C298        C  0.62909344  0.67561111  0.52181276    -0.09620
C299        C  0.62652511  0.68634547  0.56324352     0.05040
C300        C  0.62365361  0.72776633  0.57401720    -0.09040
H301        H  0.62569819  0.76972910  0.47993646     0.10640
H302        H  0.63121478  0.64406079  0.51294833     0.08170
H303        H  0.62156730  0.73659359  0.60557452     0.08020
C304        C  0.70721096  0.49035712  0.62863094     0.05050
C305        C  0.74781763  0.50139522  0.62727117    -0.11100
C306        C  0.75923892  0.54190848  0.62504534     0.02550
C307        C  0.72953897  0.57232959  0.62375279    -0.09620
C308        C  0.68805788  0.56178629  0.62593732     0.05040
C309        C  0.67708319  0.52040988  0.62860394    -0.09040
H310        H  0.77097164  0.47798350  0.62758280     0.10640
H311        H  0.73855533  0.60383599  0.62151972     0.08170
H312        H  0.64544134  0.51172887  0.63005275     0.08020
O313        O  0.44062552  0.46027025  0.02741456    -0.86420
C314        C  0.55892015  0.43095482  0.02063342     0.89610
Mg315      Mg  0.40647999  0.47406962  0.97474911     1.58150
O316        O  0.53937570  0.52715480  0.05932616    -0.86150
O317        O  0.45762047  0.48838580  0.08539185    -0.73480
C318        C  0.52551750  0.59853141  0.87257943     0.94660
O319        O  0.48884836  0.41406507  0.95746150    -0.73300
O320        O  0.49328775  0.57792622  0.86838901    -0.80800
Mg321      Mg  0.47494988  0.40599125  0.02539936     1.57960
C322        C  0.59897966  0.62697373  0.02524973     0.94580
O323        O  0.45824573  0.39470459  0.09281284    -0.79060
H324        H  0.51141060  0.56278641  0.09965168    -0.04410
C325        C  0.56876134  0.52035763  0.94106082     0.89520
O326        O  0.41456671  0.54202193  0.98863704    -0.73580
O327        O  0.52759046  0.44018003  0.03920375    -0.86340
O328        O  0.60494994  0.59258664  0.04171931    -0.79150
C329        C  0.62737474  0.47423151  0.09878794     0.94700
C330        C  0.47469406  0.40066932  0.12720596     0.94550
Mg331      Mg  0.52518608  0.59321900  0.97438717     1.57950
O332        O  0.54192383  0.60450626  0.90698981    -0.79070
O333        O  0.51126810  0.58513191  0.04231816    -0.73310
O334        O  0.59297866  0.45777841  0.10474144    -0.79150
O335        O  0.42173819  0.36810203  0.00678699    -0.80860
O336        O  0.40720405  0.54141337  0.89499125    -0.79180
C337        C  0.52078836  0.55847768  0.06855019     0.88990
O338        O  0.47255528  0.55903341  0.96055687    -0.86320
O339        O  0.55951529  0.53894371  0.97237576    -0.86430
O340        O  0.54254273  0.51081684  0.91439890    -0.73490
Mg341      Mg  0.52556168  0.47449521  0.09348542     1.57970
O342        O  0.63153036  0.50650698  0.07825301    -0.80860
H343        H  0.40028527  0.48822341  0.06303801    -0.04590
O344        O  0.46077369  0.47205582  0.94045282    -0.86130
H345        H  0.48870924  0.43640378  0.90012499    -0.04410
H346        H  0.43690516  0.59937169  0.98848291    -0.04590
C347        C  0.47934121  0.44072229  0.93122813     0.88960
C348        C  0.43139223  0.47885626  0.05873386     0.89550
C349        C  0.44122260  0.56826038  0.97912127     0.89590
H350        H  0.59987140  0.51099595  0.93676620    -0.04570
O351        O  0.58557966  0.45719320  0.01112747    -0.73590
Mg352      Mg  0.47461149  0.52470779  0.90628055     1.58000
H353        H  0.56323558  0.39984554  0.01126275    -0.04580
C354        C  0.40114586  0.37222835  0.97455095     0.94580
O355        O  0.36863892  0.49270780  0.92151153    -0.80820
C356        C  0.37280688  0.52496384  0.90094744     0.94640
O357        O  0.50692651  0.42127272  0.13136538    -0.80810
Mg358      Mg  0.59366738  0.52514330  0.02502856     1.58180
O359        O  0.39518685  0.40661328  0.95806907    -0.79140
O360        O  0.57838096  0.63110897  0.99302001    -0.80830
O361        O  0.47284577  0.44015163  0.53939654    -0.86420
C362        C  0.47895132  0.55853879  0.56841703     0.89610
Mg363      Mg  0.52575267  0.40624904  0.52587194     1.58150
O364        O  0.44080577  0.53842103  0.47212712    -0.86150
O365        O  0.41485423  0.45669698  0.51106348    -0.73480
C366        C  0.62815751  0.52532837  0.40138761     0.94660
O367        O  0.54236205  0.48885250  0.58566922    -0.73300
O368        O  0.63237894  0.49327119  0.42226417    -0.80800
Mg369      Mg  0.47444426  0.47459207  0.59361847     1.57960
C370        C  0.47480001  0.59784016  0.37221497     0.94580
O371        O  0.40693676  0.45758888  0.60475969    -0.79060
H372        H  0.40083448  0.51002955  0.43639462    -0.04410
C373        C  0.55898474  0.56850037  0.47918740     0.89520
O374        O  0.51210872  0.41407200  0.45784834    -0.73580
O375        O  0.46046252  0.52710932  0.55928807    -0.86340
O376        O  0.45825411  0.60378255  0.40655407    -0.79150
C377        C  0.40055429  0.62650148  0.52436581     0.94700
C378        C  0.37246807  0.47382958  0.59855698     0.94550
Mg379      Mg  0.52617533  0.52454853  0.40632488     1.57950
O380        O  0.59368452  0.54155361  0.39515929    -0.79070
O381        O  0.45826268  0.51026794  0.41430343    -0.73310
O382        O  0.39462417  0.59216313  0.54097716    -0.79150
O383        O  0.49332459  0.42155471  0.63171055    -0.80860
O384        O  0.60603561  0.40701908  0.45899713    -0.79180
C385        C  0.43185312  0.51965871  0.44082058     0.88990
O386        O  0.54017871  0.47204744  0.44066388    -0.86320
O387        O  0.52777208  0.55900139  0.46053857    -0.86430
O388        O  0.58574758  0.54246383  0.48891103    -0.73490
Mg389      Mg  0.40637254  0.52465483  0.52464977     1.57970
O390        O  0.42141113  0.63057496  0.49230600    -0.80860
H391        H  0.43749842  0.39948294  0.51151028    -0.04590
O392        O  0.55981624  0.46071507  0.52783815    -0.86130
H393        H  0.59979529  0.48906945  0.56359133    -0.04410
H394        H  0.51244868  0.43612395  0.40040376    -0.04590
C395        C  0.56877261  0.47945809  0.55915493     0.88960
C396        C  0.44162295  0.43065709  0.52076305     0.89550
C397        C  0.52169580  0.44061840  0.43152450     0.89590
H398        H  0.56310150  0.59967598  0.48843911    -0.04570
O399        O  0.48852343  0.58508637  0.54208693    -0.73590
Mg400      Mg  0.59425452  0.47451312  0.47532586     1.58000
H401        H  0.48821115  0.56303539  0.59953355    -0.04580
C402        C  0.52574651  0.40122989  0.62770991     0.94580
O403        O  0.57919893  0.36856236  0.50760829    -0.80820
C404        C  0.60009468  0.37266775  0.47557640     0.94640
O405        O  0.36825569  0.50591978  0.57772920    -0.80810
Mg406      Mg  0.47485725  0.59288913  0.47405874     1.58180
O407        O  0.54231254  0.39529534  0.59337858    -0.79140
O408        O  0.50725542  0.57756718  0.36821193    -0.80830
O409        O  0.97254600  0.94020447  0.03897567    -0.86420
C410        C  0.97892700  0.05848868  0.06828996     0.89610
Mg411      Mg  0.02535046  0.90614911  0.02548745     1.58150
O412        O  0.94092416  0.03869448  0.97186180    -0.86150
O413        O  0.91465849  0.95694612  0.01055749    -0.73480
C414        C  0.12834364  0.02501283  0.90138155     0.94660
O415        O  0.04213093  0.98862299  0.08545229    -0.73300
O416        O  0.13244310  0.99292857  0.92223672    -0.80800
Mg417      Mg  0.97416879  0.97453945  0.09327148     1.57960
C418        C  0.97541301  0.09828382  0.87223285     0.94580
O419        O  0.90663553  0.95773496  0.10430946    -0.79060
H420        H  0.90092296  0.01052759  0.93598910    -0.04410
C421        C  0.05922648  0.06834181  0.97918159     0.89520
O422        O  0.01185986  0.91409291  0.95745718    -0.73580
O423        O  0.96036535  0.02714194  0.05903561    -0.86340
O424        O  0.95882400  0.10420892  0.90654969    -0.79150
C425        C  0.90079607  0.12673699  0.02419560     0.94700
C426        C  0.87221052  0.97404429  0.09807046     0.94550
Mg427      Mg  0.02637121  0.02461972  0.90621006     1.57950
O428        O  0.09393790  0.04137447  0.89515309    -0.79070
O429        O  0.95840016  0.01057493  0.91402914    -0.73310
O430        O  0.89469022  0.09236656  0.04067113    -0.79150
O431        O  0.99282595  0.92138598  0.13128613    -0.80860
O432        O  0.10582602  0.90676236  0.95884749    -0.79180
C433        C  0.93196853  0.02002845  0.94049958     0.88990
O434        O  0.04015472  0.97200290  0.94044771    -0.86320
O435        O  0.02799920  0.05896138  0.96050317    -0.86430
O436        O  0.08590120  0.04220964  0.98888082    -0.73490
Mg437      Mg  0.90633975  0.02488784  0.02426498     1.57970
O438        O  0.92185973  0.13086889  0.99227689    -0.80860
H439        H  0.93714741  0.89967232  0.01095998    -0.04590
O440        O  0.05960108  0.96049803  0.02762179    -0.86130
H441        H  0.09960095  0.98869543  0.06347317    -0.04410
H442        H  0.01241240  0.93624138  0.90005229    -0.04590
C443        C  0.06855855  0.97917809  0.05897506     0.88960
C444        C  0.94133415  0.93082035  0.02027168     0.89550
C445        C  0.02159758  0.94065034  0.93120345     0.89590
H446        H  0.06343205  0.09949198  0.98847787    -0.04570
O447        O  0.98868396  0.08504604  0.04204442    -0.73590
Mg448      Mg  0.09418515  0.97425224  0.97521017     1.58000
H449        H  0.98810712  0.06288813  0.09944397    -0.04580
C450        C  0.02516708  0.90094083  0.12726844     0.94580
O451        O  0.07869376  0.86832265  0.00730594    -0.80820
C452        C  0.09974345  0.87241551  0.97537794     0.94640
O453        O  0.86806977  0.00612887  0.07721956    -0.80810
Mg454      Mg  0.97519858  0.09303115  0.97402447     1.58180
O455        O  0.04175162  0.89502352  0.09295153    -0.79140
O456        O  0.00772601  0.07779214  0.86821132    -0.80830
C457        C  0.75895102  0.04327950  0.37690947     0.05050
C458        C  0.74762837  0.00278334  0.37483705    -0.11100
C459        C  0.70708191  0.99162083  0.37295430     0.02550
C460        C  0.67685375  0.02153444  0.37249604    -0.09620
C461        C  0.68772639  0.06293439  0.37522798     0.05040
C462        C  0.72917453  0.07361898  0.37775588    -0.09040
H463        H  0.77087494  0.97944978  0.37469756     0.10640
H464        H  0.64526750  0.01275383  0.37053209     0.08170
H465        H  0.73809840  0.10515884  0.37986766     0.08020
C466        C  0.59557182  0.12547653  0.34523443     0.05050
C467        C  0.62569801  0.09533275  0.34541153    -0.11100
C468        C  0.65596678  0.09487270  0.37540416     0.02550
C469        C  0.65587406  0.12502772  0.40551999    -0.09620
C470        C  0.62600191  0.15542544  0.40590956     0.05040
C471        C  0.59596097  0.15541793  0.37561801    -0.09040
H472        H  0.62559373  0.07216175  0.32213729     0.10640
H473        H  0.67913025  0.12484612  0.42871396     0.08170
H474        H  0.57284791  0.17874241  0.37569521     0.08020
C475        C  0.49241002  0.12738128  0.29380421     0.05050
C476        C  0.52227576  0.12830854  0.32408749    -0.11100
C477        C  0.56369488  0.12554674  0.31334680     0.02550
C478        C  0.57442472  0.12250053  0.27192620    -0.09620
C479        C  0.54411575  0.12286448  0.24206845     0.05040
C480        C  0.50361764  0.12499642  0.25330845    -0.09040
H481        H  0.51343436  0.13058092  0.35562734     0.10640
H482        H  0.60596968  0.12029621  0.26308267     0.08170
H483        H  0.48030655  0.12476677  0.23002980     0.08020
C484        C  0.62522822  0.25836458  0.45785111     0.05050
C485        C  0.62749641  0.24693853  0.49834359    -0.11100
C486        C  0.62897690  0.20633771  0.50936666     0.02550
C487        C  0.62902057  0.17620095  0.47931359    -0.09620
C488        C  0.62630905  0.18716619  0.43794133     0.05040
C489        C  0.62400934  0.22865881  0.42741790    -0.09040
H490        H  0.62776468  0.27009282  0.52176002     0.10640
H491        H  0.63055731  0.14456113  0.48799173     0.08170
H492        H  0.62175468  0.23768000  0.39592205     0.08020
C493        C  0.29394464  0.00764407  0.62693564     0.05050
C494        C  0.32421684  0.97776888  0.62736427    -0.11100
C495        C  0.31339241  0.93635555  0.62461644     0.02550
C496        C  0.27196323  0.92561823  0.62211027    -0.09620
C497        C  0.24215101  0.95590891  0.62298800     0.05040
C498        C  0.25341159  0.99642157  0.62507650    -0.09040
H499        H  0.35579338  0.98658692  0.62931007     0.10640
H500        H  0.26307879  0.89406813  0.61997931     0.08170
H501        H  0.23012859  0.01971835  0.62522652     0.08020
C502        C  0.37501877  0.84382098  0.59390618     0.05050
C503        C  0.34520391  0.87427252  0.59428666    -0.11100
C504        C  0.34516225  0.90443614  0.62439361     0.02550
C505        C  0.37542725  0.90393825  0.65438281    -0.09620
C506        C  0.40549664  0.87374305  0.65456153     0.05040
C507        C  0.40506436  0.84379240  0.62419024    -0.09040
H508        H  0.32193493  0.87447539  0.57110560     0.10640
H509        H  0.37556108  0.92710138  0.67766524     0.08170
H510        H  0.42814212  0.82043263  0.62412346     0.08020
C511        C  0.45691117  0.87604687  0.75773469     0.05050
C512        C  0.49741503  0.87408881  0.74648861    -0.11100
C513        C  0.50863136  0.87192358  0.70598390     0.02550
C514        C  0.47877655  0.87102838  0.67569539    -0.09620
C515        C  0.43735523  0.87362143  0.68644849     0.05040
C516        C  0.42660512  0.87645863  0.72787655    -0.09040
H517        H  0.52072449  0.87428832  0.76976966     0.10640
H518        H  0.48762298  0.86891121  0.64414587     0.08170
H519        H  0.39505157  0.87854314  0.73671930     0.08020
C520        C  0.37176705  0.79285061  0.49049627     0.05050
C521        C  0.37320826  0.75225181  0.50153661    -0.11100
C522        C  0.37555112  0.74084414  0.54203163     0.02550
C523        C  0.37688473  0.77056692  0.57244466    -0.09620
C524        C  0.37462663  0.81205698  0.56190070     0.05040
C525        C  0.37184170  0.82300148  0.52053035    -0.09040
H526        H  0.37285069  0.72908623  0.47813289     0.10640
H527        H  0.37919002  0.76156097  0.60394117     0.08170
H528        H  0.37033190  0.85463833  0.51183651     0.08020
O529        O  0.55987737  0.03868075  0.02759666    -0.86420
C530        C  0.44153359  0.06777407  0.02097337     0.89610
Mg531      Mg  0.59406702  0.02516966  0.97486239     1.58150
O532        O  0.46132332  0.97144479  0.05925996    -0.86150
O533        O  0.54297424  0.01033666  0.08549152    -0.73480
C534        C  0.47533488  0.90074822  0.87201556     0.94660
O535        O  0.51152406  0.08496094  0.95785980    -0.73300
O536        O  0.50749405  0.92149743  0.86791427    -0.80800
Mg537      Mg  0.52546283  0.09291607  0.02583338     1.57960
C538        C  0.40200714  0.87158519  0.02488038     0.94580
O539        O  0.54216826  0.10401573  0.09339703    -0.79060
H540        H  0.48950679  0.93571301  0.09936847    -0.04410
C541        C  0.43196232  0.97856149  0.94092466     0.89520
O542        O  0.58616686  0.95713051  0.98846883    -0.73580
O543        O  0.47286656  0.05859509  0.03958234    -0.86340
O544        O  0.39596094  0.90593279  0.04138588    -0.79150
C545        C  0.37306766  0.02381945  0.09899500     0.94700
C546        C  0.52577683  0.09783515  0.12779424     0.94550
Mg547      Mg  0.47569175  0.90567893  0.97396578     1.57950
O548        O  0.45896637  0.89456942  0.90642166    -0.79070
O549        O  0.48962474  0.91364375  0.04193367    -0.73310
O550        O  0.40740544  0.04037840  0.10511850    -0.79150
O551        O  0.57858335  0.13104529  0.00718337    -0.80860
O552        O  0.59369203  0.95825408  0.89460292    -0.79180
C553        C  0.48005065  0.94014135  0.06830105     0.88990
O554        O  0.52828548  0.93999881  0.96019554    -0.86320
O555        O  0.44127120  0.95991064  0.97219082    -0.86430
O556        O  0.45814335  0.98823496  0.91428327    -0.73490
Mg557      Mg  0.47498958  0.02398867  0.09369921     1.57970
O558        O  0.36906340  0.99175318  0.07811743    -0.80860
H559        H  0.60029698  0.01069306  0.06313355    -0.04590
O560        O  0.53978682  0.02714656  0.94052152    -0.86130
H561        H  0.51160462  0.06289265  0.90042362    -0.04410
H562        H  0.56405474  0.89969394  0.98804302    -0.04590
C563        C  0.52106877  0.05845697  0.93148784     0.88960
C564        C  0.56916670  0.02000626  0.05885662     0.89550
C565        C  0.55963017  0.93082526  0.97878804     0.89590
H566        H  0.40082543  0.98785354  0.93664951    -0.04570
O567        O  0.41499570  0.04147461  0.01128338    -0.73590
Mg568      Mg  0.52612223  0.97460253  0.90607428     1.58000
H569        H  0.43711945  0.09890542  0.01171184    -0.04580
C570        C  0.59907911  0.12704798  0.97486913     0.94580
O571        O  0.63203261  0.00687932  0.92160973    -0.80820
C572        C  0.62802193  0.97483512  0.90069902     0.94640
O573        O  0.49362108  0.07707746  0.13187453    -0.80810
Mg574      Mg  0.40705978  0.97344468  0.02489281     1.58180
O575        O  0.60511022  0.09270350  0.95834740    -0.79140
O576        O  0.42257908  0.86756180  0.99261942    -0.80830
C577        C  0.62326931  0.24137557  0.95656628     0.05050
C578        C  0.62286263  0.27129755  0.92633303    -0.11100
C579        C  0.62559063  0.31269314  0.93721360     0.02550
C580        C  0.62809818  0.32335908  0.97865662    -0.09620
C581        C  0.62722711  0.29300592  0.00842293     0.05040
C582        C  0.62513221  0.25252074  0.99710563    -0.09040
H583        H  0.62094951  0.26252985  0.89474440     0.10640
H584        H  0.63021045  0.35489486  0.98758436     0.08170
H585        H  0.62496975  0.22917885  0.02035440     0.08020
C586        C  0.62576039  0.34465643  0.90547791     0.05050
C587        C  0.59573894  0.34514721  0.87524251    -0.11100
C588        C  0.59554448  0.37533872  0.84516124     0.02550
C589        C  0.62591906  0.40529485  0.84555388    -0.09620
C590        C  0.65622911  0.40527777  0.87556449     0.05040
C591        C  0.65587286  0.37483126  0.90539966    -0.09040
H592        H  0.57245970  0.32196829  0.87512728     0.10640
H593        H  0.62598042  0.42864316  0.82245463     0.08170
H594        H  0.67908525  0.37462695  0.92863723     0.08020
C595        C  0.49240271  0.37300610  0.79368121     0.05050
C596        C  0.50367978  0.37507836  0.75319246    -0.11100
C597        C  0.54419544  0.37730974  0.74201711     0.02550
C598        C  0.57445980  0.37812810  0.77189084    -0.09620
C599        C  0.56367383  0.37543948  0.81329387     0.05040
C600        C  0.52223785  0.37254765  0.82400893    -0.09040
H601        H  0.48041640  0.37493297  0.72986515     0.10640
H602        H  0.60601985  0.38026911  0.76307000     0.08170
H603        H  0.51337049  0.37040250  0.85555082     0.08020
C604        C  0.70820542  0.50821722  0.87454864     0.05050
C605        C  0.67775565  0.47851169  0.87342215    -0.11100
C606        C  0.68826190  0.43702431  0.87584327     0.02550
C607        C  0.72962566  0.42606373  0.87858331    -0.09620
C608        C  0.75968450  0.45620157  0.87848837     0.05040
C609        C  0.74868940  0.49679740  0.87688462    -0.09040
H610        H  0.64626336  0.48753006  0.87112861     0.10640
H611        H  0.73829580  0.39442477  0.88016018     0.08170
H612        H  0.77212122  0.51994983  0.87709486     0.08020
C613        C  0.37343707  0.70567225  0.99125914     0.05050
C614        C  0.37562694  0.74615754  0.00256085    -0.11100
C615        C  0.37754011  0.75731012  0.04309511     0.02550
C616        C  0.37790942  0.72740659  0.07333655    -0.09620
C617        C  0.37509671  0.68601567  0.06248053     0.05040
C618        C  0.37252985  0.67533197  0.02104255    -0.09040
H619        H  0.37582126  0.76949310  0.97930616     0.10640
H620        H  0.37985674  0.73618949  0.10491912     0.08170
H621        H  0.37033878  0.64379696  0.01213307     0.08020
C622        C  0.45622850  0.62166257  0.25791168     0.05050
C623        C  0.49674347  0.62400650  0.24676255    -0.11100
C624        C  0.50804054  0.62610457  0.20628425     0.02550
C625        C  0.47822919  0.62647364  0.17593601    -0.09620
C626        C  0.43679105  0.62347820  0.18661602     0.05040
C627        C  0.42598269  0.62076257  0.22801565    -0.09040
H628        H  0.51999276  0.62421974  0.27010388     0.10640
H629        H  0.48712036  0.62863747  0.14440222     0.08170
H630        H  0.39442276  0.61854697  0.23681717     0.08020
C631        C  0.34428564  0.59359629  0.12426897     0.05050
C632        C  0.34472856  0.62396059  0.09435721    -0.11100
C633        C  0.37487512  0.65409368  0.09425413     0.02550
C634        C  0.40484215  0.65364499  0.12454492    -0.09620
C635        C  0.40495322  0.62353286  0.15470786     0.05040
C636        C  0.37454305  0.59361095  0.15433478    -0.09040
H637        H  0.32154940  0.62413769  0.07108596     0.10640
H638        H  0.42814121  0.67680378  0.12464383     0.08170
H639        H  0.37441538  0.57031084  0.17748213     0.08020
C640        C  0.29223468  0.49071881  0.12517912     0.05050
C641        C  0.32270381  0.52039601  0.12637160    -0.11100
C642        C  0.31222669  0.56188781  0.12398638     0.02550
C643        C  0.27087382  0.57288499  0.12122439    -0.09620
C644        C  0.24079498  0.54276743  0.12126350     0.05040
C645        C  0.25176162  0.50216510  0.12282762    -0.09040
H646        H  0.35418852  0.51135391  0.12867709     0.10640
H647        H  0.26223042  0.60453205  0.11966262     0.08170
H648        H  0.22831547  0.47902706  0.12256892     0.08020
O649        O  0.00701683  0.42558805  0.98086050    -0.86420
C650        C  0.09249166  0.51100038  0.99730395     0.89610
Mg651      Mg  0.96033752  0.43195617  0.93727473     1.58150
O652        O  0.01959411  0.50662265  0.07344402    -0.86150
O653        O  0.01269242  0.41609612  0.04657995    -0.73480
C654        C  0.89712561  0.62105689  0.96244289     0.94660
O655        O  0.04659863  0.48614797  0.91656334    -0.73300
O656        O  0.89475840  0.59286307  0.93632585    -0.80800
Mg657      Mg  0.06747297  0.43597441  0.96040437     1.57960
C658        C  0.96399692  0.60377571  0.12056101     0.94580
O659        O  0.08911509  0.38363530  0.00177175    -0.79060
H660        H  0.98978196  0.47467257  0.11550075    -0.04410
C661        C  0.00304843  0.59164646  0.98743013     0.89520
O662        O  0.91677657  0.45344344  0.98738561    -0.73580
O663        O  0.07398770  0.47973070  0.00691874    -0.86340
O664        O  0.99926992  0.58915182  0.11466998    -0.79150
C665        C  0.12145029  0.53631272  0.10325350     0.94700
C666        C  0.10347585  0.37787347  0.03720305     0.94550
Mg667      Mg  0.93306173  0.56293402  0.03926062     1.57950
O668        O  0.91146575  0.61528873  0.99788225    -0.79070
O669        O  0.95392409  0.51274455  0.08309359    -0.73310
O670        O  0.11556910  0.50084485  0.08903331    -0.79150
O671        O  0.06284278  0.39281303  0.90714321    -0.80860
O672        O  0.88496542  0.49808309  0.91063460    -0.79180
C673        C  0.98820478  0.49739234  0.09192176     0.88990
O674        O  0.92654355  0.51918134  0.99274313    -0.86320
O675        O  0.99351940  0.57330295  0.01880693    -0.86430
O676        O  0.98786568  0.58278976  0.95308455    -0.73490
Mg677      Mg  0.06305367  0.45971164  0.06743069     1.57970
O678        O  0.09341506  0.56257402  0.10542226    -0.80860
H679        H  0.97465678  0.38377916  0.01059023    -0.04590
O680        O  0.98093136  0.49226793  0.92621962    -0.86130
H681        H  0.01073381  0.52420378  0.88414591    -0.04410
H682        H  0.88453888  0.48976769  0.02512806    -0.04590
C683        C  0.01231619  0.50149290  0.90773305     0.88960
C684        C  0.99750144  0.40723883  0.01223788     0.89550
C685        C  0.90804044  0.48791187  0.00236189     0.89590
H686        H  0.02590035  0.61509879  0.98908154    -0.04570
O687        O  0.08375655  0.54546586  0.01228703    -0.73590
Mg688      Mg  0.93749162  0.53919393  0.93223240     1.58000
H689        H  0.11599389  0.50914727  0.97453821    -0.04580
C690        C  0.03653694  0.39510293  0.87912291     0.94580
O691        O  0.90707945  0.43633389  0.89426203    -0.80820
C692        C  0.87905935  0.46261516  0.89642689     0.94640
O693        O  0.10581274  0.40606020  0.06333060    -0.80810
Mg694      Mg  0.04018476  0.56693790  0.06239646     1.58180
O695        O  0.00125788  0.40972334  0.88499981    -0.79140
O696        O  0.93768831  0.60608454  0.09254370    -0.80830
C697        C  0.87519448  0.15510325  0.59465658     0.05050
C698        C  0.84521785  0.12480632  0.59488932    -0.11100
C699        C  0.84508556  0.09448224  0.62483392     0.02550
C700        C  0.87540077  0.09469631  0.65478040    -0.09620
C701        C  0.90561326  0.12475996  0.65501715     0.05040
C702        C  0.90527488  0.15484728  0.62484102    -0.09040
H703        H  0.82194592  0.12482354  0.57170950     0.10640
H704        H  0.87547795  0.07142019  0.67795614     0.08170
H705        H  0.92847543  0.17810482  0.62484219     0.08020
C706        C  0.00878867  0.12659540  0.70619665     0.05050
C707        C  0.97890260  0.12732337  0.67595393    -0.11100
C708        C  0.93750587  0.12473379  0.68679014     0.02550
C709        C  0.92678447  0.12209188  0.72820484    -0.09620
C710        C  0.95711423  0.12264016  0.75799626     0.05040
C711        C  0.99761622  0.12456800  0.74672110    -0.09040
H712        H  0.98769868  0.12938539  0.64438492     0.10640
H713        H  0.89523023  0.12012425  0.73709126     0.08170
H714        H  0.02094211  0.12449963  0.76998500     0.08020
C715        C  0.74203021  0.04308188  0.62291913     0.05050
C716        C  0.75326143  0.00255761  0.62476353    -0.11100
C717        C  0.79378135  0.99133196  0.62664801     0.02550
C718        C  0.82406439  0.02119124  0.62733180    -0.09620
C719        C  0.81327188  0.06261263  0.62484108     0.05040
C720        C  0.77185876  0.07338210  0.62233151    -0.09040
H721        H  0.72996742  0.97925581  0.62471978     0.10640
H722        H  0.85563091  0.01235500  0.62927877     0.08170
H723        H  0.76300161  0.10495161  0.62043133     0.08020
C724        C  0.87702011  0.25824101  0.54338745     0.05050
C725        C  0.87766942  0.22838439  0.57366007    -0.11100
C726        C  0.87511962  0.18697229  0.56285598     0.02550
C727        C  0.87254693  0.17621017  0.52144392    -0.09620
C728        C  0.87317125  0.20651181  0.49162214     0.05040
C729        C  0.87507545  0.24702998  0.50286720    -0.09040
H730        H  0.87965407  0.23721501  0.60522771     0.10640
H731        H  0.87058885  0.14464554  0.51258271     0.08170
H732        H  0.87507441  0.27033617  0.47958313     0.08020
C733        C  0.99229704  0.12675150  0.20651178     0.05050
C734        C  0.00361415  0.12479237  0.24700714    -0.11100
C735        C  0.04414847  0.12268191  0.25816841     0.02550
C736        C  0.07437259  0.12188788  0.22826850    -0.09620
C737        C  0.06353155  0.12450969  0.18686721     0.05040
C738        C  0.02209260  0.12726270  0.17616906    -0.09040
H739        H  0.98037121  0.12489188  0.27034205     0.10640
H740        H  0.10594222  0.11975282  0.23706179     0.08170
H741        H  0.01319085  0.12929031  0.14462416     0.08020
C742        C  0.12640563  0.20698771  0.99162803     0.05050
C743        C  0.12376934  0.24746082  0.00306997    -0.11100
C744        C  0.12215683  0.25845602  0.04366361     0.02550
C745        C  0.12238948  0.22835090  0.07378036    -0.09620
C746        C  0.12547528  0.18697626  0.06281212     0.05040
C747        C  0.12787914  0.17652392  0.02131555    -0.09040
H748        H  0.12328355  0.27089064  0.97992602     0.10640
H749        H  0.12070020  0.23699490  0.10541199     0.08170
H750        H  0.13033253  0.14504890  0.01226883     0.08020
C751        C  0.15572640  0.09396095  0.12460549     0.05050
C752        C  0.15560302  0.12440668  0.09465872    -0.11100
C753        C  0.12567834  0.15486281  0.09454237     0.02550
C754        C  0.09568687  0.15454809  0.12482026    -0.09620
C755        C  0.09534054  0.12443531  0.15496802     0.05040
C756        C  0.12546497  0.09430042  0.15462276    -0.09040
H757        H  0.17880891  0.12440007  0.07143278     0.10640
H758        H  0.07252431  0.17782815  0.12492987     0.08170
H759        H  0.12536414  0.07104180  0.17781570     0.08020
C760        C  0.25863115  0.04179727  0.12376701     0.05050
C761        C  0.22896054  0.07227820  0.12234830    -0.11100
C762        C  0.18744737  0.06183960  0.12479259     0.02550
C763        C  0.17645162  0.02046444  0.12786283    -0.09620
C764        C  0.20655009  0.99035079  0.12803643     0.05040
C765        C  0.24715181  0.00133040  0.12638614    -0.09040
H766        H  0.23803187  0.10375240  0.11990663     0.10640
H767        H  0.14481284  0.01182672  0.12957464     0.08170
H768        H  0.27027627  0.97788882  0.12683277     0.08020
O769        O  0.22290584  0.21018800  0.69045345    -0.86420
C770        C  0.22954039  0.18109536  0.80887382     0.89610
Mg771      Mg  0.27556463  0.22390917  0.65626879     1.58150
O772        O  0.19105124  0.27734788  0.78908163    -0.86150
O773        O  0.16497929  0.23842157  0.70739515    -0.73480
C774        C  0.37809964  0.34839513  0.77515199     0.94660
O775        O  0.29279256  0.16409750  0.73883371    -0.73300
O776        O  0.38217464  0.32783038  0.74288991    -0.80800
Mg777      Mg  0.22484964  0.15599153  0.72492546     1.57960
C778        C  0.22525133  0.37723911  0.84848872     0.94580
O779        O  0.15740632  0.14476508  0.70818134    -0.79060
H780        H  0.15082630  0.31302914  0.76100312    -0.04410
C781        C  0.30937479  0.27036581  0.81844051     0.89520
O782        O  0.26172300  0.29189065  0.66431189    -0.73580
O783        O  0.21100712  0.19029046  0.77750380    -0.86340
O784        O  0.20875683  0.34286366  0.85447276    -0.79150
C785        C  0.15129715  0.22486912  0.87724595     0.94700
C786        C  0.12299569  0.15083865  0.72454553     0.94550
Mg787      Mg  0.27618270  0.34328406  0.77484213     1.57950
O788        O  0.34370790  0.35443198  0.79158678    -0.79070
O789        O  0.20821152  0.33527000  0.76091247    -0.73310
O790        O  0.14529823  0.20827236  0.84291557    -0.79150
O791        O  0.24353433  0.11791804  0.67183289    -0.80860
O792        O  0.35523525  0.29136558  0.65674347    -0.79180
C793        C  0.18191295  0.30866813  0.77042870     0.88990
O794        O  0.28990012  0.30901430  0.72223944    -0.86320
O795        O  0.27807991  0.28900748  0.80920154    -0.86430
O796        O  0.33602158  0.26080594  0.79222273    -0.73490
Mg797      Mg  0.15678223  0.22470852  0.77536429     1.57970
O798        O  0.17211335  0.25697847  0.88127653    -0.80860
H799        H  0.18729915  0.23812778  0.65006303    -0.04590
O800        O  0.30989682  0.22197991  0.71054066    -0.86130
H801        H  0.35016386  0.18636485  0.73863967    -0.04410
H802        H  0.26187425  0.34927027  0.68655172    -0.04590
C803        C  0.31906716  0.19069114  0.72923228     0.88960
C804        C  0.19160840  0.22880521  0.68118768     0.89550
C805        C  0.27126487  0.31817372  0.69091449     0.89590
H806        H  0.31367517  0.26098886  0.84954957    -0.04570
O807        O  0.23910173  0.20737375  0.83546782    -0.73590
Mg808      Mg  0.34413383  0.27464637  0.72425602     1.58000
H809        H  0.23883446  0.14997522  0.81327996    -0.04580
C810        C  0.27574709  0.12199114  0.65119167     0.94580
O811        O  0.32877465  0.24251544  0.61832891    -0.80820
C812        C  0.34919824  0.27488428  0.62237106     0.94640
O813        O  0.11883175  0.17149295  0.75673906    -0.80810
Mg814      Mg  0.22536907  0.27537789  0.84337518     1.58180
O815        O  0.29220573  0.15637777  0.64510142    -0.79140
O816        O  0.25755434  0.38131533  0.82798966    -0.80830
O817        O  0.69084284  0.22177197  0.21082572    -0.86420
C818        C  0.80909426  0.22885851  0.18137156     0.89610
Mg819      Mg  0.65643556  0.27430335  0.22448758     1.58150
O820        O  0.78971259  0.19022942  0.27764110    -0.86150
O821        O  0.70804299  0.16385319  0.23896365    -0.73480
C822        C  0.77517133  0.37719010  0.34853430     0.94660
O823        O  0.73882239  0.29179251  0.16449906    -0.73300
O824        O  0.74278625  0.38118621  0.32814195    -0.80800
Mg825      Mg  0.72510197  0.22378097  0.15652447     1.57960
C826        C  0.84906334  0.22472470  0.37734417     0.94580
O827        O  0.70849696  0.15625967  0.14551326    -0.79060
H828        H  0.76180515  0.14990204  0.31335261    -0.04410
C829        C  0.81853620  0.30868664  0.27058899     0.89520
O830        O  0.66452048  0.26055093  0.29245164    -0.73580
O831        O  0.77783221  0.21018381  0.19066101    -0.86340
O832        O  0.85511162  0.20824496  0.34298885    -0.79150
C833        C  0.87794096  0.15103685  0.22481973     0.94700
C834        C  0.72501922  0.12190768  0.15152366     0.94550
Mg835      Mg  0.77514526  0.27532152  0.34349867     1.57950
O836        O  0.79171715  0.34284779  0.35453163    -0.79070
O837        O  0.76145701  0.20730329  0.33552901    -0.73310
O838        O  0.84355920  0.14486126  0.20838699    -0.79150
O839        O  0.67182611  0.24221447  0.11860062    -0.80860
O840        O  0.65672210  0.35422612  0.29163736    -0.79180
C841        C  0.77110130  0.18102999  0.30896515     0.88990
O842        O  0.72241776  0.28889976  0.30935921    -0.86320
O843        O  0.80941474  0.27733574  0.28920246    -0.86430
O844        O  0.79222274  0.33526573  0.26108968    -0.73490
Mg845      Mg  0.77601560  0.15593338  0.22505569     1.57970
O846        O  0.88199611  0.17174668  0.25699163    -0.80860
H847        H  0.65064611  0.18602501  0.23887199    -0.04590
O848        O  0.71057746  0.30886195  0.22239335    -0.86130
H849        H  0.73849928  0.34918851  0.18668995    -0.04410
H850        H  0.68688269  0.26091599  0.34977952    -0.04590
C851        C  0.72919180  0.31806273  0.19107117     0.88960
C852        C  0.68172776  0.19042961  0.22945838     0.89550
C853        C  0.69115358  0.27022898  0.31864917     0.89590
H854        H  0.84962135  0.31309848  0.26118995    -0.04570
O855        O  0.83572399  0.23854517  0.20756934    -0.73590
Mg856      Mg  0.72424576  0.34315923  0.27497949     1.58000
H857        H  0.81336690  0.23816889  0.15024023    -0.04580
C858        C  0.65124824  0.27446231  0.12268349     0.94580
O859        O  0.61830046  0.32737667  0.24300630    -0.80820
C860        C  0.62235032  0.34807174  0.27518587     0.94640
O861        O  0.75741327  0.11789793  0.17190438    -0.80810
Mg862      Mg  0.84384008  0.22481272  0.27553347     1.58180
O863        O  0.64521327  0.29091725  0.15705012    -0.79140
O864        O  0.82842192  0.25693170  0.38141142    -0.80830
C865        C  0.12867914  0.70614573  0.00941954     0.05050
C866        C  0.12723993  0.74673928  0.99836653    -0.11100
C867        C  0.12495512  0.75812508  0.95786541     0.02550
C868        C  0.12369842  0.72839831  0.92746524    -0.09620
C869        C  0.12594209  0.68691833  0.93803000     0.05040
C870        C  0.12864352  0.67598092  0.97940334    -0.09040
H871        H  0.12755093  0.76991514  0.02176105     0.10640
H872        H  0.12145869  0.73739530  0.89596060     0.08170
H873        H  0.13010901  0.64434351  0.98811091     0.08020
C874        C  0.15556768  0.59463281  0.87551763     0.05050
C875        C  0.15544156  0.62473407  0.90567968    -0.11100
C876        C  0.12561299  0.65516831  0.90602998     0.02550
C877        C  0.09564786  0.65524188  0.87567347    -0.09620
C878        C  0.09531523  0.62535550  0.84524747     0.05040
C879        C  0.12538511  0.59516868  0.84545346    -0.09040
H880        H  0.17866316  0.62450761  0.92890836     0.10640
H881        H  0.07257311  0.67860520  0.87570966     0.08170
H882        H  0.12532983  0.57205353  0.82212259     0.08020
C883        C  0.04437607  0.62331751  0.74186578     0.05050
C884        C  0.00382315  0.62538789  0.75292325    -0.11100
C885        C  0.99242848  0.62749697  0.79338265     0.02550
C886        C  0.02214288  0.62824012  0.82380787    -0.09620
C887        C  0.06360191  0.62558117  0.81323361     0.05040
C888        C  0.07453700  0.62278494  0.77185739    -0.09040
H889        H  0.98062050  0.62527413  0.72953591     0.10640
H890        H  0.01315725  0.63027512  0.85532510     0.08170
H891        H  0.10612486  0.62062315  0.76315569     0.08020
C892        C  0.20685696  0.49150226  0.87281986     0.05050
C893        C  0.24738074  0.50275114  0.87463045    -0.11100
C894        C  0.25860896  0.54326610  0.87677433     0.02550
C895        C  0.22877723  0.57353122  0.87773925    -0.09620
C896        C  0.18735803  0.56275517  0.87527923     0.05040
C897        C  0.17655827  0.52134255  0.87250562    -0.09040
H898        H  0.27068227  0.47947263  0.87440397     0.10640
H899        H  0.23763593  0.60508750  0.87989157     0.08170
H900        H  0.14498226  0.51249960  0.87062619     0.08020
O901        O  0.17647715  0.74233484  0.23058142    -0.86420
C902        C  0.26237430  0.65728408  0.24749641     0.89610
Mg903      Mg  0.18263336  0.78917486  0.18709474     1.58150
O904        O  0.25713914  0.73008431  0.32369372    -0.86150
O905        O  0.16674620  0.73647307  0.29625352    -0.73480
C906        C  0.37117924  0.85323911  0.21315851     0.94660
O907        O  0.23768312  0.70331223  0.16656681    -0.73300
O908        O  0.34301464  0.85576190  0.18703941    -0.80800
Mg909      Mg  0.18752288  0.68197808  0.21013177     1.57960
C910        C  0.35370604  0.78645335  0.37111653     0.94580
O911        O  0.13521884  0.65979778  0.25101292    -0.79060
H912        H  0.22487737  0.75967360  0.36564836    -0.04410
C913        C  0.34222420  0.74719560  0.23792735     0.89520
O914        O  0.20361892  0.83278140  0.23740944    -0.73580
O915        O  0.23103123  0.67573704  0.25689028    -0.86340
O916        O  0.33929430  0.75105243  0.36531440    -0.79150
C917        C  0.28716483  0.62832135  0.35352200     0.94700
C918        C  0.12927513  0.64530440  0.28633538     0.94550
Mg919      Mg  0.31301343  0.81696788  0.28969174     1.57950
O920        O  0.36537709  0.83874315  0.24851637    -0.79070
O921        O  0.26282092  0.79580273  0.33337791    -0.73310
O922        O  0.25177733  0.63408573  0.33907626    -0.79150
O923        O  0.14458196  0.68627708  0.15680359    -0.80860
O924        O  0.24842387  0.86511889  0.16095245    -0.79180
C925        C  0.24765534  0.76141084  0.34214719     0.88990
O926        O  0.26935256  0.82329001  0.24306042    -0.86320
O927        O  0.32380227  0.75657335  0.26929852    -0.86430
O928        O  0.33341758  0.76247520  0.20360329    -0.73490
Mg929      Mg  0.21052498  0.68636023  0.31728981     1.57970
O930        O  0.31331701  0.65647841  0.35591141    -0.80860
H931        H  0.13436158  0.77436374  0.26018901    -0.04590
O932        O  0.24309832  0.76904532  0.17623671    -0.86130
H933        H  0.27545758  0.73958257  0.13427438    -0.04410
H934        H  0.23964722  0.86509507  0.27541076    -0.04590
C935        C  0.25268565  0.73775994  0.15777454     0.88960
C936        C  0.15794503  0.75166677  0.26189780     0.89550
C937        C  0.23797929  0.84163466  0.25258002     0.89590
H938        H  0.36573564  0.72441862  0.23956381    -0.04570
O939        O  0.29671611  0.66611160  0.26271242    -0.73590
Mg940      Mg  0.28968807  0.81271772  0.18262101     1.58000
H941        H  0.26069878  0.63375007  0.22474249    -0.04580
C942        C  0.14671761  0.71256443  0.12877318     0.94580
O943        O  0.18683655  0.84275175  0.14426621    -0.80820
C944        C  0.21299454  0.87091662  0.14660317     0.94640
O945        O  0.15721481  0.64321421  0.31274435    -0.80810
Mg946      Mg  0.31761415  0.70986104  0.31292521     1.58180
O947        O  0.16094065  0.74803622  0.13464726    -0.79140
O948        O  0.35606557  0.81262432  0.34298945    -0.80830
C949        C  0.70634858  0.00754719  0.12782903     0.05050
C950        C  0.74683276  0.99628759  0.12548100    -0.11100
C951        C  0.75801286  0.95577173  0.12333099     0.02550
C952        C  0.72811100  0.92550412  0.12293931    -0.09620
C953        C  0.68670585  0.93629872  0.12596642     0.05040
C954        C  0.67602018  0.97772873  0.12873226    -0.09040
H955        H  0.77014571  0.01957103  0.12525938     0.10640
H956        H  0.73690577  0.89394391  0.12070480     0.08170
H957        H  0.64448847  0.98661463  0.13096921     0.08020
C958        C  0.65477044  0.90448142  0.12580097     0.05050
C959        C  0.62437586  0.90406055  0.15572041    -0.11100
C960        C  0.59404774  0.87404840  0.15563899     0.02550
C961        C  0.59441055  0.84425433  0.12516251    -0.09620
C962        C  0.62454448  0.84420825  0.09502986     0.05040
C963        C  0.65456943  0.87443886  0.09558264    -0.09040
H964        H  0.62432884  0.92711762  0.17910297     0.10640
H965        H  0.57120528  0.82100390  0.12492122     0.08170
H966        H  0.67786754  0.87456401  0.07244021     0.08020
C967        C  0.62733540  0.79307219  0.99180423     0.05050
C968        C  0.62543975  0.75252450  0.00297987    -0.11100
C969        C  0.62323343  0.74123472  0.04347078     0.02550
C970        C  0.62225926  0.77102518  0.07377965    -0.09620
C971        C  0.62478994  0.81246339  0.06308905     0.05040
C972        C  0.62766577  0.82332147  0.02170384    -0.09040
H973        H  0.62566877  0.72925586  0.97966733     0.10640
H974        H  0.62005266  0.76211560  0.10531037     0.08170
H975        H  0.62965573  0.85490779  0.01292478     0.08020
C976        C  0.49064470  0.87090824  0.20666584     0.05050
C977        C  0.50172945  0.87236302  0.24724809    -0.11100
C978        C  0.54224231  0.87467254  0.25861467     0.02550
C979        C  0.57262830  0.87593695  0.22887537    -0.09620
C980        C  0.56204848  0.87365789  0.18740478     0.05040
C981        C  0.52065927  0.87091385  0.17649397    -0.09040
H982        H  0.47834763  0.87207475  0.27043124     0.10640
H983        H  0.60413635  0.87822736  0.23785656     0.08170
H984        H  0.51193677  0.86940636  0.14486992     0.08020
C985        C  0.84576630  0.59451643  0.37337847     0.05050
C986        C  0.87604899  0.59470708  0.34334264    -0.11100
C987        C  0.90656293  0.62453341  0.34321970     0.02550
C988        C  0.90648459  0.65440033  0.37368202    -0.09620
C989        C  0.87644526  0.65466946  0.40396113     0.05040
C990        C  0.84624107  0.62460979  0.40353501    -0.09040
H991        H  0.87588455  0.57157299  0.32003659     0.10640
H992        H  0.92983250  0.67750483  0.37381065     0.08170
H993        H  0.82301504  0.62464121  0.42675095     0.08020
C994        C  0.95817186  0.62253275  0.23998631     0.05050
C995        C  0.99874428  0.62438684  0.25124674    -0.11100
C996        C  0.00989682  0.62629353  0.29184259     0.02550
C997        C  0.97993930  0.62693048  0.32207991    -0.09620
C998        C  0.93851230  0.62447528  0.31132275     0.05040
C999        C  0.92784945  0.62197873  0.26987144    -0.09040
H1000       H  0.02205501  0.62436514  0.22800222     0.10640
H1001       H  0.98874611  0.62877343  0.35366411     0.08170
H1002       H  0.89628010  0.62019012  0.26099153     0.08020
C1003       C  0.87356805  0.70592269  0.50723151     0.05050
C1004       C  0.87334896  0.67564214  0.47733631    -0.11100
C1005       C  0.87639260  0.68645380  0.43592468     0.02550
C1006       C  0.87899959  0.72789417  0.42523058    -0.09620
C1007       C  0.87791924  0.75770895  0.45553289     0.05040
C1008       C  0.87553632  0.74644805  0.49601861    -0.09040
H1009       H  0.87126990  0.64406845  0.48613747     0.10640
H1010       H  0.88128320  0.73679005  0.39370228     0.08170
H1011       H  0.87521631  0.76973793  0.51931116     0.08020
C1012       C  0.74235366  0.54352464  0.37624794     0.05050
C1013       C  0.75344159  0.50296717  0.37433052    -0.11100
C1014       C  0.79389775  0.49159747  0.37201719     0.02550
C1015       C  0.82429428  0.52133464  0.37092144    -0.09620
C1016       C  0.81371933  0.56280483  0.37345336     0.05040
C1017       C  0.77233946  0.57372483  0.37645603    -0.09040
H1018       H  0.73007628  0.47973808  0.37467822     0.10640
H1019       H  0.85580155  0.51235761  0.36869612     0.08170
H1020       H  0.76363247  0.60532103  0.37851192     0.08020
C1021       C  0.99185698  0.87263818  0.29328139     0.05050
C1022       C  0.00303743  0.87467429  0.25276179    -0.11100
C1023       C  0.04353810  0.87666771  0.24149877     0.02550
C1024       C  0.07385973  0.87727623  0.27129737    -0.09620
C1025       C  0.06313212  0.87462678  0.31271054     0.05040
C1026       C  0.02173510  0.87196887  0.32353388    -0.09040
H1027       H  0.97971792  0.87469724  0.22949099     0.10640
H1028       H  0.10541269  0.87928920  0.26241695     0.08170
H1029       H  0.01293185  0.86989373  0.35509962     0.08020
C1030       C  0.09501912  0.87463465  0.34449244     0.05050
C1031       C  0.09535580  0.84456735  0.37469031    -0.11100
C1032       C  0.12544418  0.84432335  0.40486724     0.02550
C1033       C  0.15542598  0.87460717  0.40460771    -0.09620
C1034       C  0.15556393  0.90490824  0.37464691     0.05040
C1035       C  0.12524141  0.90469227  0.34470657    -0.09040
H1036       H  0.07215568  0.82130968  0.37470515     0.10640
H1037       H  0.17870744  0.87459305  0.42777823     0.08170
H1038       H  0.12517027  0.92795581  0.32151842     0.08020
C1039       C  0.25864513  0.95623690  0.37671067     0.05050
C1040       C  0.22879939  0.92595455  0.37720878    -0.11100
C1041       C  0.18739632  0.93675277  0.37463833     0.02550
C1042       C  0.17663123  0.97817982  0.37217316    -0.09620
C1043       C  0.20693303  0.00801456  0.37294992     0.05040
C1044       C  0.24744132  0.99676569  0.37488643    -0.09040
H1045       H  0.23763487  0.89437904  0.37911009     0.10640
H1046       H  0.14507300  0.98703865  0.37019724     0.08170
H1047       H  0.27074833  0.02005494  0.37500969     0.08020
C1048       C  0.12774828  0.79290747  0.50789027     0.05050
C1049       C  0.12579906  0.75239485  0.49664384    -0.11100
C1050       C  0.12370787  0.74119477  0.45613068     0.02550
C1051       C  0.12296239  0.77105158  0.42586521    -0.09620
C1052       C  0.12556052  0.81245871  0.43666755     0.05040
C1053       C  0.12827509  0.82321480  0.47807373    -0.09040
H1054       H  0.12586890  0.72908318  0.51992283     0.10640
H1055       H  0.12087379  0.76222343  0.39430350     0.08170
H1056       H  0.13027600  0.85477633  0.48693500     0.08020
C1057       C  0.29435524  0.99143669  0.87198188     0.05050
C1058       C  0.25384954  0.00265981  0.87421951    -0.11100
C1059       C  0.24262325  0.04317045  0.87631532     0.02550
C1060       C  0.27249649  0.07346593  0.87677134    -0.09620
C1061       C  0.31391981  0.06271367  0.87386232     0.05040
C1062       C  0.32465431  0.02129124  0.87114591    -0.09040
H1063       H  0.23055844  0.97935510  0.87438809     0.10640
H1064       H  0.26366480  0.10501944  0.87895729     0.08170
H1065       H  0.35620117  0.01243912  0.86898954     0.08020
C1066       C  0.40653779  0.12507502  0.84428756     0.05050
C1067       C  0.37626018  0.09501144  0.84419285    -0.11100
C1068       C  0.34581819  0.09457336  0.87406344     0.02550
C1069       C  0.34592399  0.12465515  0.90424665    -0.09620
C1070       C  0.37590100  0.15493711  0.90480761     0.05040
C1071       C  0.40608160  0.15490438  0.87472448    -0.09040
H1072       H  0.37637701  0.07193568  0.82082884     0.10640
H1073       H  0.32259284  0.12451980  0.92735580     0.08170
H1074       H  0.42924906  0.17819278  0.87497216     0.08020
C1075       C  0.37310407  0.20609409  0.00800812     0.05050
C1076       C  0.37486747  0.24664690  0.99682620    -0.11100
C1077       C  0.37699414  0.25794039  0.95633136     0.02550
C1078       C  0.37799969  0.22814391  0.92602445    -0.09620
C1079       C  0.37558363  0.18669958  0.93672791     0.05040
C1080       C  0.37280388  0.17584084  0.97811610    -0.09040
H1081       H  0.37461998  0.26991560  0.02013847     0.10640
H1082       H  0.38015775  0.23704938  0.89448936     0.08170
H1083       H  0.37092771  0.14424919  0.98690342     0.08020
C1084       C  0.50996347  0.12828938  0.79330254     0.05050
C1085       C  0.47994233  0.12823400  0.82347227    -0.11100
C1086       C  0.43855441  0.12550849  0.81254565     0.02550
C1087       C  0.42798108  0.12329948  0.77107318    -0.09620
C1088       C  0.45836901  0.12461519  0.74134329     0.05040
C1089       C  0.49888057  0.12690574  0.75271677    -0.09040
H1090       H  0.48865579  0.12968687  0.85510159     0.10640
H1091       H  0.39647396  0.12102183  0.76208416     0.08170
H1092       H  0.52226328  0.12722884  0.72953492     0.08020
O1093       O  0.94119421  0.95997730  0.52725257    -0.86420
C1094       C  0.05950517  0.93075236  0.52049580     0.89610
Mg1095     Mg  0.90704532  0.97382315  0.47459897     1.58150
O1096       O  0.03983944  0.02690732  0.55921159    -0.86150
O1097       O  0.95812843  0.98804411  0.58526729    -0.73480
C1098       C  0.02596943  0.09841683  0.37243294     0.94660
O1099       O  0.98946619  0.91391861  0.45729492    -0.73300
O1100       O  0.99370463  0.07785382  0.36830457    -0.80800
Mg1101     Mg  0.97553591  0.90571702  0.52522337     1.57960
C1102       C  0.09932299  0.12685734  0.52535457     0.94580
O1103       O  0.95879487  0.89436945  0.59267792    -0.79060
H1104       H  0.01184700  0.06251769  0.59954049    -0.04410
C1105       C  0.06926664  0.02025089  0.44093269     0.89520
O1106       O  0.91510987  0.04176720  0.48858069    -0.73580
O1107       O  0.02816846  0.93991105  0.53909314    -0.86340
O1108       O  0.10527865  0.09244500  0.54177976    -0.79150
C1109       C  0.12789561  0.97409305  0.59873637     0.94700
C1110       C  0.97521995  0.90035380  0.62708862     0.94550
Mg1111     Mg  0.02570351  0.09308074  0.47428954     1.57950
O1112       O  0.04243569  0.10438196  0.40682659    -0.79070
O1113       O  0.01177485  0.08491754  0.54222584    -0.73310
O1114       O  0.09352097  0.95758633  0.60467873    -0.79150
O1115       O  0.92235121  0.86780532  0.50647685    -0.80860
O1116       O  0.90763182  0.04129677  0.39495153    -0.79180
C1117       C  0.02124956  0.05822825  0.56844322     0.88990
O1118       O  0.97305795  0.05888859  0.46046260    -0.86320
O1119       O  0.06001969  0.03880530  0.47226758    -0.86430
O1120       O  0.04304729  0.01074150  0.41425681    -0.73490
Mg1121     Mg  0.02607605  0.97422180  0.59337721     1.57970
O1122       O  0.13201234  0.00635439  0.57817310    -0.80860
H1123       H  0.90080248  0.98783594  0.56289227    -0.04590
O1124       O  0.96133630  0.97190167  0.44031157    -0.86130
H1125       H  0.98936221  0.93632024  0.39998189    -0.04410
H1126       H  0.93739650  0.09913811  0.48850695    -0.04590
C1127       C  0.97995524  0.94059709  0.43107928     0.88960
C1128       C  0.93192327  0.97851364  0.55858884     0.89550
C1129       C  0.94173533  0.06804796  0.47908310     0.89590
H1130       H  0.10037852  0.01090164  0.43662457    -0.04570
O1131       O  0.08612432  0.95703804  0.51099400    -0.73590
Mg1132     Mg  0.97509108  0.02459919  0.40617081     1.58000
H1133       H  0.06385912  0.89965849  0.51109230    -0.04580
C1134       C  0.90187179  0.87196712  0.47416812     0.94580
O1135       O  0.86913639  0.99250881  0.42140724    -0.80820
C1136       C  0.87324627  0.02481538  0.40091135     0.94640
O1137       O  0.00744979  0.92096724  0.63125117    -0.80810
Mg1138     Mg  0.09414842  0.02499264  0.52494989     1.58180
O1139       O  0.89588359  0.90638560  0.45776819    -0.79140
O1140       O  0.07891090  0.13099562  0.49299988    -0.80830
C1141       C  0.04246033  0.37630291  0.75971268     0.05050
C1142       C  0.00189637  0.37445643  0.74842804    -0.11100
C1143       C  0.99076619  0.37256412  0.70782688     0.02550
C1144       C  0.02074263  0.37192203  0.67760527    -0.09620
C1145       C  0.06216496  0.37436421  0.68839036     0.05040
C1146       C  0.07280188  0.37685692  0.72984785    -0.09040
H1147       H  0.97857209  0.37448524  0.77165943     0.10640
H1148       H  0.01195568  0.37009563  0.64601434     0.08170
H1149       H  0.10436542  0.37865049  0.73874687     0.08020
C1150       C  0.09413840  0.37431639  0.65651806     0.05050
C1151       C  0.12460340  0.40419540  0.65638242    -0.11100
C1152       C  0.15490373  0.40440695  0.62636446     0.02550
C1153       C  0.15449397  0.37427848  0.59623964    -0.09620
C1154       C  0.12433676  0.34416848  0.59582419     0.05040
C1155       C  0.09428386  0.34441439  0.62608912    -0.09040
H1156       H  0.12471481  0.42735412  0.67966430     0.10640
H1157       H  0.17772601  0.37426734  0.57302954     0.08170
H1158       H  0.07096811  0.32127726  0.62596501     0.08020
C1159       C  0.12301454  0.24116406  0.54414115     0.05050
C1160       C  0.12192004  0.27094164  0.57448730    -0.11100
C1161       C  0.12441257  0.31240401  0.56383869     0.02550
C1162       C  0.12734190  0.32327335  0.52243586    -0.09620
C1163       C  0.12713217  0.29303348  0.49250312     0.05040
C1164       C  0.12529224  0.25248773  0.50366567    -0.09040
H1165       H  0.11970837  0.26200464  0.60600874     0.10640
H1166       H  0.12932038  0.35486367  0.51367001     0.08170
H1167       H  0.12562356  0.22923157  0.48033962     0.08020
C1168       C  0.20665239  0.50740782  0.62761939     0.05050
C1169       C  0.24712195  0.49607307  0.62536635    -0.11100
C1170       C  0.25825504  0.45552479  0.62353068     0.02550
C1171       C  0.22830342  0.42529168  0.62333721    -0.09620
C1172       C  0.18690791  0.43616811  0.62627698     0.05040
C1173       C  0.17628418  0.47763497  0.62873329    -0.09040
H1174       H  0.27046508  0.51932451  0.62500726     0.10640
H1175       H  0.23704855  0.39370229  0.62134050     0.08170
H1176       H  0.14476484  0.48657950  0.63091395     0.08020
O1177       O  0.30932280  0.27708718  0.21034151    -0.86420
C1178       C  0.19077511  0.26969724  0.18180972     0.89610
Mg1179     Mg  0.34376522  0.22462096  0.22420630     1.58150
O1180       O  0.21068209  0.30884688  0.27776689    -0.86150
O1181       O  0.29216718  0.33503821  0.23843484    -0.73480
C1182       C  0.22542535  0.12234192  0.34929093     0.94660
O1183       O  0.26108375  0.20670193  0.16468447    -0.73300
O1184       O  0.25772379  0.11827844  0.32879222    -0.80800
Mg1185     Mg  0.27460549  0.27467685  0.15630073     1.57960
C1186       C  0.15172020  0.27487714  0.37814088     0.94580
O1187       O  0.29089834  0.34214707  0.14458829    -0.79060
H1188       H  0.23869114  0.34941396  0.31312631    -0.04410
C1189       C  0.18172972  0.19051311  0.27131016     0.89520
O1190       O  0.33584836  0.23870989  0.29213536    -0.73580
O1191       O  0.22212661  0.28837348  0.19080249    -0.86340
O1192       O  0.14546676  0.29124068  0.34373633    -0.79150
C1193       C  0.12224992  0.34774838  0.22502254     0.94700
C1194       C  0.27432992  0.37648353  0.15053221     0.94550
Mg1195     Mg  0.22550273  0.22416375  0.34395079     1.57950
O1196       O  0.20893625  0.15670580  0.35527531    -0.79070
O1197       O  0.23915893  0.29214247  0.33565503    -0.73310
O1198       O  0.15656161  0.35369877  0.20840497    -0.79150
O1199       O  0.32763683  0.25610997  0.11813093    -0.80860
O1200       O  0.34367050  0.14514222  0.29191449    -0.79180
C1201       C  0.22940425  0.31825362  0.30896429     0.88990
O1202       O  0.27801448  0.21048735  0.30948525    -0.86320
O1203       O  0.19085070  0.22188921  0.28989238    -0.86430
O1204       O  0.20805355  0.16397572  0.26171880    -0.73490
Mg1205     Mg  0.22411505  0.34281745  0.22487656     1.57970
O1206       O  0.11830873  0.32746221  0.25748483    -0.80860
H1207       H  0.34961541  0.31301077  0.23803274    -0.04590
O1208       O  0.28961565  0.19004475  0.22254779    -0.86130
H1209       H  0.26169453  0.14942428  0.18717916    -0.04410
H1210       H  0.31374356  0.23873593  0.34955404    -0.04590
C1211       C  0.27091589  0.18060405  0.19135118     0.88960
C1212       C  0.31848255  0.30850786  0.22882007     0.89550
C1213       C  0.30932584  0.22921747  0.31850735     0.89590
H1214       H  0.15062050  0.18604834  0.26199951    -0.04570
O1215       O  0.16424439  0.26029088  0.20820586    -0.73590
Mg1216     Mg  0.27608617  0.15607238  0.27539227     1.58000
H1217       H  0.18631399  0.26017313  0.15077032    -0.04580
C1218       C  0.34857522  0.22409770  0.12227951     0.94580
O1219       O  0.38195530  0.17162180  0.24297475    -0.80820
C1220       C  0.37800046  0.15120109  0.27535241     0.94640
O1221       O  0.24229793  0.38057379  0.17142829    -0.80810
Mg1222     Mg  0.15644853  0.27439677  0.27616502     1.58180
O1223       O  0.35488354  0.20780747  0.15670360    -0.79140
O1224       O  0.17248892  0.24274152  0.38219714    -0.80830
C1225       C  0.87462741  0.34394768  0.09375415     0.05050
C1226       C  0.84477490  0.37436345  0.09409098    -0.11100
C1227       C  0.84464325  0.40449953  0.12422317     0.02550
C1228       C  0.87484884  0.40401281  0.15426926    -0.09620
C1229       C  0.90494220  0.37384492  0.15449221     0.05040
C1230       C  0.90460407  0.34392314  0.12409908    -0.09040
H1231       H  0.82155010  0.37455725  0.07086553     0.10640
H1232       H  0.87490815  0.42715892  0.17756898     0.08170
H1233       H  0.92769401  0.32057513  0.12406980     0.08020
C1234       C  0.87549835  0.24099025  0.04188825     0.05050
C1235       C  0.87324973  0.25238873  0.00139167    -0.11100
C1236       C  0.87175931  0.29298019  0.99034998     0.02550
C1237       C  0.87169179  0.32313785  0.02037441    -0.09620
C1238       C  0.87435186  0.31219436  0.06174996     0.05040
C1239       C  0.87665954  0.27071071  0.07230383    -0.09040
H1240       H  0.87301512  0.22922128  0.97798718     0.10640
H1241       H  0.87019198  0.35477496  0.01167192     0.08170
H1242       H  0.87888473  0.26170749  0.10380719     0.08020
C1243       C  0.95599540  0.37618637  0.25782242     0.05050
C1244       C  0.99653063  0.37394771  0.24673991    -0.11100
C1245       C  0.00788355  0.37161783  0.20628343     0.02550
C1246       C  0.97813851  0.37084521  0.17588561    -0.09620
C1247       C  0.93669228  0.37367899  0.18648113     0.05040
C1248       C  0.92580672  0.37667964  0.22785756    -0.09040
H1249       H  0.01975340  0.37408154  0.27010752     0.10640
H1250       H  0.98709411  0.36864403  0.14437139     0.08170
H1251       H  0.89423399  0.37895556  0.23658446     0.08020
C1252       C  0.74158958  0.45588032  0.12290948     0.05050
C1253       C  0.75282096  0.49639407  0.12506201    -0.11100
C1254       C  0.79334354  0.50764085  0.12689229     0.02550
C1255       C  0.82364093  0.47779659  0.12721741    -0.09620
C1256       C  0.81284427  0.43638088  0.12443647     0.05040
C1257       C  0.77142195  0.42561025  0.12195556    -0.09040
H1258       H  0.72952141  0.51967479  0.12528286     0.10640
H1259       H  0.85521562  0.48664016  0.12911276     0.08170
H1260       H  0.76256076  0.39405516  0.11980046     0.08020
C1261       C  0.84535802  0.90500882  0.87485692     0.05050
C1262       C  0.87562629  0.90462905  0.84484943    -0.11100
C1263       C  0.90571977  0.87446194  0.84452670     0.02550
C1264       C  0.90533925  0.84436201  0.87469198    -0.09620
C1265       C  0.87533736  0.84409021  0.90496304     0.05040
C1266       C  0.84544693  0.87457792  0.90481878    -0.09040
H1267       H  0.87574879  0.92787080  0.82163970     0.10640
H1268       H  0.92847974  0.82106008  0.87459830     0.08170
H1269       H  0.82222503  0.87461109  0.92802871     0.08020
C1270       C  0.00877880  0.87217268  0.79302898     0.05050
C1271       C  0.99748057  0.87403733  0.75252460    -0.11100
C1272       C  0.95695163  0.87608462  0.74133730     0.02550
C1273       C  0.92671065  0.87689296  0.77122328    -0.09620
C1274       C  0.93753603  0.87434749  0.81263569     0.05040
C1275       C  0.97897156  0.87166732  0.82335846    -0.09040
H1276       H  0.02073704  0.87393680  0.72920270     0.10640
H1277       H  0.89514335  0.87899280  0.76241391     0.08170
H1278       H  0.98786062  0.86971312  0.85491161     0.08020
C1279       C  0.79440900  0.00857351  0.87134102     0.05050
C1280       C  0.75382437  0.99753057  0.87299665    -0.11100
C1281       C  0.74240900  0.95704891  0.87564691     0.02550
C1282       C  0.77211971  0.92661582  0.87707462    -0.09620
C1283       C  0.81361513  0.93710797  0.87461531     0.05040
C1284       C  0.82455543  0.97849954  0.87151994    -0.09040
H1285       H  0.73066256  0.02093544  0.87255967     0.10640
H1286       H  0.76309083  0.89513232  0.87955454     0.08170
H1287       H  0.85618254  0.98717921  0.86981197     0.08020
C1288       C  0.87862590  0.74050171  0.95588983     0.05050
C1289       C  0.87689229  0.75151088  0.99647442    -0.11100
C1290       C  0.87426739  0.79198908  0.00789634     0.02550
C1291       C  0.87293699  0.82244627  0.97819434    -0.09620
C1292       C  0.87546338  0.81198181  0.93670587     0.05040
C1293       C  0.87853182  0.77059846  0.92576098    -0.09040
H1294       H  0.87726816  0.72808726  0.01962684     0.10640
H1295       H  0.87048604  0.85392564  0.98722603     0.08170
H1296       H  0.88029814  0.76194038  0.89413737     0.08020
O1297       O  0.19138349  0.72176599  0.71026965    -0.86420
C1298       C  0.30966339  0.72862086  0.68096268     0.89610
Mg1299     Mg  0.15711160  0.77437909  0.72393388     1.58150
O1300       O  0.29005238  0.69006113  0.77719791    -0.86150
O1301       O  0.20838573  0.66380253  0.73842355    -0.73480
C1302       C  0.27592793  0.87705852  0.84814938     0.94660
O1303       O  0.23956419  0.79168276  0.66400286    -0.73300
O1304       O  0.24360839  0.88109424  0.82766015    -0.80800
Mg1305     Mg  0.22569835  0.72370004  0.65600033     1.57960
C1306       C  0.34942559  0.72428457  0.87699696     0.94580
O1307       O  0.20896630  0.65618974  0.64494797    -0.79060
H1308       H  0.26204098  0.64978725  0.81289065    -0.04410
C1309       C  0.31925577  0.80842853  0.77022069     0.89520
O1310       O  0.16514853  0.76059824  0.79190092    -0.73580
O1311       O  0.27835186  0.70999800  0.69019629    -0.86340
O1312       O  0.35542510  0.70781469  0.84262884    -0.79150
C1313       C  0.37821215  0.65064851  0.72445430     0.94700
C1314       C  0.22542313  0.62180901  0.65099392     0.94550
Mg1315     Mg  0.27573024  0.77516211  0.84310847     1.57950
O1316       O  0.29241847  0.84269071  0.85419082    -0.79070
O1317       O  0.26187260  0.70717513  0.83510681    -0.73310
O1318       O  0.34384266  0.64457713  0.70797502    -0.79150
O1319       O  0.17250224  0.74226273  0.61803948    -0.80860
O1320       O  0.15751471  0.85423503  0.79114161    -0.79180
C1321       C  0.27142243  0.68089219  0.80851858     0.88990
O1322       O  0.22307069  0.78884989  0.80890635    -0.86320
O1323       O  0.31004471  0.77710438  0.78883630    -0.86430
O1324       O  0.29300931  0.83505783  0.76067359    -0.73490
Mg1325     Mg  0.27635201  0.65576557  0.72460212     1.57970
O1326       O  0.38227894  0.67127739  0.75667398    -0.80860
H1327       H  0.15104211  0.68610978  0.73822337    -0.04590
O1328       O  0.21134182  0.80880021  0.72189432    -0.86130
H1329       H  0.23937756  0.84907058  0.68621825    -0.04410
H1330       H  0.18743662  0.76088780  0.84925721    -0.04590
C1331       C  0.22999170  0.81796642  0.69058323     0.88960
C1332       C  0.18215297  0.69044140  0.72887261     0.89550
C1333       C  0.19176498  0.77021738  0.81813899     0.89590
H1334       H  0.35036153  0.81276922  0.76085711    -0.04570
O1335       O  0.33627798  0.73824434  0.70720176    -0.73590
Mg1336     Mg  0.22503297  0.84308276  0.77449932     1.58000
H1337       H  0.31399439  0.73794194  0.64984299    -0.04580
C1338       C  0.15195747  0.77453236  0.62212190     0.94580
O1339       O  0.11908030  0.82754072  0.74244045    -0.80820
C1340       C  0.12313813  0.84814945  0.77467438     0.94640
O1341       O  0.25776913  0.61775422  0.67143795    -0.80810
Mg1342     Mg  0.34429208  0.72446370  0.77517297     1.58180
O1343       O  0.14594407  0.79100371  0.65648592    -0.79140
O1344       O  0.32894049  0.75659492  0.88107404    -0.80830
C1345       C  0.08680984  0.86279762  0.79356182    -0.11350
C1346       C  0.05154056  0.86902024  0.80083777    -0.12910
C1347       C  0.05064348  0.36834407  0.19861095    -0.11350
C1348       C  0.08588772  0.36217393  0.20603225    -0.12910
C1349       C  0.19894355  0.55019558  0.63055082    -0.11350
C1350       C  0.20636378  0.58547780  0.63655183    -0.12910
C1351       C  0.13699928  0.29372355  0.41449612    -0.11350
C1352       C  0.13058924  0.30094621  0.44975966    -0.12910
C1353       C  0.95629252  0.88557330  0.66334516    -0.11350
C1354       C  0.94904327  0.87926466  0.69860247    -0.12910
C1355       C  0.11997317  0.19838633  0.55187507    -0.11350
C1356       C  0.11385940  0.16312730  0.54444889    -0.12910
C1357       C  0.36982024  0.19814210  0.05072993    -0.11350
C1358       C  0.36342646  0.20529111  0.08599240    -0.12910
C1359       C  0.30218746  0.94868478  0.86884046    -0.11350
C1360       C  0.29488894  0.91340157  0.86269428    -0.12910
C1361       C  0.13098009  0.80075834  0.55060730    -0.11350
C1362       C  0.13727453  0.79346261  0.58584677    -0.12910
C1363       C  0.19909982  0.05076539  0.36998462    -0.11350
C1364       C  0.20644843  0.08603802  0.36387831    -0.12910
C1365       C  0.88107592  0.80046095  0.44773573    -0.11350
C1366       C  0.88726841  0.83571366  0.45510768    -0.12910
C1367       C  0.05263291  0.62879637  0.30034468    -0.11350
C1368       C  0.08876185  0.63354438  0.29714878    -0.12910
C1369       C  0.41173938  0.86441272  0.20187718    -0.11350
C1370       C  0.44788475  0.86870687  0.19821443    -0.12910
C1371       C  0.13097303  0.69767288  0.05214730    -0.11350
C1372       C  0.13540205  0.70133597  0.08826162    -0.12910
C1373       C  0.69858299  0.05030169  0.13098497    -0.11350
C1374       C  0.70598677  0.08556672  0.13708484    -0.12910
C1375       C  0.79417409  0.41354095  0.36297912    -0.11350
C1376       C  0.80157621  0.44881603  0.36901599    -0.12910
C1377       C  0.20632007  0.41352692  0.86316914    -0.11350
C1378       C  0.19900436  0.44876429  0.86951541    -0.12910
C1379       C  0.19804067  0.94759651  0.13069973    -0.11350
C1380       C  0.20170875  0.91146832  0.13529037    -0.12910
C1381       C  0.12975520  0.19930748  0.94886067    -0.11350
C1382       C  0.13625695  0.20631791  0.91358963    -0.12910
C1383       C  0.05208909  0.11946731  0.30089250    -0.11350
C1384       C  0.04487875  0.11316538  0.33615727    -0.12910
C1385       C  0.94953730  0.13002804  0.19872578    -0.11350
C1386       C  0.91427679  0.13633738  0.20597875    -0.12910
C1387       C  0.87005594  0.19863962  0.44889792    -0.11350
C1388       C  0.86379809  0.20587031  0.41363783    -0.12910
C1389       C  0.08675156  0.13609342  0.70557883    -0.11350
C1390       C  0.05150577  0.12978713  0.69828747    -0.12910
C1391       C  0.88128113  0.69773979  0.94742452    -0.11350
C1392       C  0.88584869  0.66160880  0.95110876    -0.12910
C1393       C  0.95310444  0.61542024  0.16108744    -0.11350
C1394       C  0.94979295  0.62008025  0.19721839    -0.12910
C1395       C  0.05080461  0.37876650  0.80248445    -0.11350
C1396       C  0.04744989  0.38344250  0.83860825    -0.12910
C1397       C  0.11946109  0.30120933  0.05215728    -0.11350
C1398       C  0.11482826  0.33733511  0.04850820    -0.12910
C1399       C  0.29991541  0.44797549  0.12863199    -0.11350
C1400       C  0.29285462  0.41275174  0.13531045    -0.12910
C1401       C  0.19808195  0.55128014  0.11893807    -0.11350
C1402       C  0.16196742  0.54757913  0.11452416    -0.12910
C1403       C  0.37025937  0.69791184  0.94851591    -0.11350
C1404       C  0.36403141  0.70529287  0.91327852    -0.12910
C1405       C  0.80240550  0.44770601  0.88078522    -0.11350
C1406       C  0.83852751  0.45137799  0.88517265    -0.12910
C1407       C  0.44964840  0.36951839  0.80144095    -0.11350
C1408       C  0.41441376  0.36310132  0.79408984    -0.12910
C1409       C  0.63658311  0.29340812  0.08640683    -0.11350
C1410       C  0.63035176  0.30076497  0.05116729    -0.12910
C1411       C  0.66438127  0.95633903  0.88564074    -0.11350
C1412       C  0.69964519  0.94933923  0.87908558    -0.12910
C1413       C  0.33669283  0.04237549  0.11395707    -0.11350
C1414       C  0.30141955  0.04943816  0.12041381    -0.12910
C1415       C  0.61369621  0.16338944  0.95595145    -0.11350
C1416       C  0.61999616  0.19864652  0.94864704    -0.12910
C1417       C  0.38090881  0.80002354  0.05101689    -0.11350
C1418       C  0.38729660  0.83526728  0.04375091    -0.12910
C1419       C  0.36944034  0.80134498  0.44776247    -0.11350
C1420       C  0.36500751  0.79771212  0.41163789    -0.12910
C1421       C  0.44911432  0.87951643  0.80048120    -0.11350
C1422       C  0.45643695  0.88597067  0.83571165    -0.12910
C1423       C  0.29460654  0.08566445  0.63647996    -0.11350
C1424       C  0.30183560  0.05039338  0.63017557    -0.12910
C1425       C  0.19942162  0.94803217  0.61982647    -0.11350
C1426       C  0.16416314  0.95522846  0.61351812    -0.12910
C1427       C  0.41438590  0.13674385  0.29429781    -0.11350
C1428       C  0.44966182  0.13059905  0.30162181    -0.12910
C1429       C  0.55190848  0.11919841  0.19933455    -0.11350
C1430       C  0.54462554  0.11264840  0.16411201    -0.12910
C1431       C  0.83696577  0.04377099  0.38625044    -0.11350
C1432       C  0.80170731  0.05107113  0.38002815    -0.12910
C1433       C  0.16465722  0.04380167  0.88649369    -0.11350
C1434       C  0.19989184  0.05100429  0.87992261    -0.12910
C1435       C  0.05136092  0.87992539  0.19878478    -0.11350
C1436       C  0.04405715  0.88625593  0.16355721    -0.12910
C1437       C  0.88554749  0.16300664  0.04267853    -0.11350
C1438       C  0.87888665  0.19824820  0.04965583    -0.12910
C1439       C  0.80072627  0.94792320  0.11959926    -0.11350
C1440       C  0.83593350  0.95519079  0.11296180    -0.12910
C1441       C  0.95656310  0.11301964  0.83594188    -0.11350
C1442       C  0.94929047  0.11937861  0.80071192    -0.12910
C1443       C  0.11499641  0.83612261  0.95695689    -0.11350
C1444       C  0.12162713  0.80086230  0.95006037    -0.12910
C1445       C  0.54473617  0.38672131  0.66403677    -0.11350
C1446       C  0.55206508  0.38052147  0.69929269    -0.12910
C1447       C  0.69963846  0.55148023  0.37987711    -0.11350
C1448       C  0.66440942  0.54423888  0.38647118    -0.12910
C1449       C  0.37883900  0.69808558  0.54980011    -0.11350
C1450       C  0.38539102  0.66281306  0.54285225    -0.12910
C1451       C  0.61529996  0.33637992  0.45707992    -0.11350
C1452       C  0.62189806  0.30112220  0.45010457    -0.12910
C1453       C  0.33621409  0.45489044  0.61343144    -0.11350
C1454       C  0.30098397  0.44761083  0.61997643    -0.12910
C1455       C  0.44835999  0.61843651  0.30063659    -0.11350
C1456       C  0.45574422  0.61227277  0.33588897    -0.12910
C1457       C  0.61376819  0.66323671  0.04412016    -0.11350
C1458       C  0.62006827  0.69849990  0.05131403    -0.12910
C1459       C  0.66361445  0.45527434  0.11351104    -0.11350
C1460       C  0.69886297  0.44800121  0.11977642    -0.12910
C1461       C  0.38636105  0.33595587  0.95568449    -0.11350
C1462       C  0.38008710  0.30068534  0.94848837    -0.12910
C1463       C  0.33657687  0.54390327  0.88618849    -0.11350
C1464       C  0.30133009  0.55115719  0.87990460    -0.12910
C1465       C  0.44980826  0.62971139  0.69843770    -0.11350
C1466       C  0.41452627  0.63594886  0.70560394    -0.12910
C1467       C  0.54448439  0.61332170  0.83636808    -0.11350
C1468       C  0.55183633  0.61964890  0.80114669    -0.12910
C1469       C  0.66407257  0.04371556  0.61340107    -0.11350
C1470       C  0.69931518  0.05096180  0.61974115    -0.12910
C1471       C  0.45739268  0.11459875  0.66335839    -0.11350
C1472       C  0.45053842  0.12127198  0.69861457    -0.12910
C1473       C  0.54321578  0.88476747  0.33659637    -0.11350
C1474       C  0.55007255  0.87807020  0.30134281    -0.12910
C1475       C  0.61381306  0.83558793  0.54437590    -0.11350
C1476       C  0.62042128  0.80036784  0.55160148    -0.12910
C1477       C  0.33656285  0.95560629  0.38645324    -0.11350
C1478       C  0.30134510  0.94834174  0.38000513    -0.12910
C1479       C  0.11400096  0.66326901  0.45559081    -0.11350
C1480       C  0.12040255  0.69848486  0.44825905    -0.12910
C1481       C  0.05238244  0.61976201  0.69917272    -0.11350
C1482       C  0.04520470  0.61318022  0.66394206    -0.12910
C1483       C  0.80197936  0.54972138  0.62175838    -0.11350
C1484       C  0.83723925  0.54287803  0.61508856    -0.12910
C1485       C  0.94804294  0.37989377  0.30051072    -0.11350
C1486       C  0.95528120  0.38651004  0.33572179    -0.12910
C1487       C  0.88662432  0.33619781  0.54398818    -0.11350
C1488       C  0.88025857  0.30096119  0.55127058    -0.12910
C1489       C  0.19863494  0.44960156  0.37808231    -0.11350
C1490       C  0.16337706  0.45651111  0.38470849    -0.12910
C1491       C  0.30199242  0.55164776  0.36914685    -0.11350
C1492       C  0.29842399  0.58779408  0.36480496    -0.12910
C1493       C  0.36960904  0.30128202  0.55073255    -0.11350
C1494       C  0.36362608  0.29392910  0.58602790    -0.12910
C1495       C  0.38011240  0.19895193  0.44839451    -0.11350
C1496       C  0.38670188  0.16373010  0.45562695    -0.12910
C1497       C  0.55074867  0.36908919  0.30118320    -0.11350
C1498       C  0.58602011  0.36278390  0.29400776    -0.12910
C1499       C  0.45578859  0.38586007  0.16343861    -0.11350
C1500       C  0.44853083  0.37951180  0.19867440    -0.12910
C1501       C  0.86354491  0.70536650  0.58522428    -0.11350
C1502       C  0.86999434  0.69808362  0.54997946    -0.12910
C1503       C  0.70048962  0.55095854  0.87103600    -0.11350
C1504       C  0.70749408  0.58619002  0.86431054    -0.12910
C1505       C  0.58665434  0.86279336  0.70553437    -0.11350
C1506       C  0.55138352  0.86888041  0.69816083    -0.12910
C1507       C  0.80165618  0.94858688  0.62970286    -0.11350
C1508       C  0.79439623  0.91330999  0.63591526    -0.12910
C1509       C  0.63720447  0.79385502  0.91383583    -0.11350
C1510       C  0.63074837  0.80101175  0.94908751    -0.12910
C1511       C  0.91439739  0.63664651  0.79361328    -0.11350
C1512       C  0.94965336  0.63056554  0.80104297    -0.12910
C1513       C  0.79908677  0.08748647  0.86422992    -0.11350
C1514       C  0.80283912  0.05135188  0.86873098    -0.12910
C1515       C  0.58887569  0.13472904  0.79805278    -0.11350
C1516       C  0.55272878  0.13045870  0.80175037    -0.12910
C1517       C  0.63557819  0.20149977  0.58823907    -0.11350
C1518       C  0.63121964  0.19783983  0.55210643    -0.12910
C1519       C  0.69866498  0.44761193  0.63081359    -0.11350
C1520       C  0.70220167  0.41145932  0.63515687    -0.12910
C1521       C  0.86519091  0.29773095  0.91149927    -0.11350
C1522       C  0.86953956  0.30144494  0.94761799    -0.12910
C1523       C  0.91189439  0.36541724  0.70254671    -0.11350
C1524       C  0.94802856  0.37010835  0.69931438    -0.12910
C1525       C  0.79390334  0.58562536  0.13655393    -0.11350
C1526       C  0.80119567  0.55038136  0.13020649    -0.12910
C1527       C  0.87078032  0.79968460  0.05065182    -0.11350
C1528       C  0.86418213  0.79271123  0.08591367    -0.12910
C1529       C  0.58600601  0.63619384  0.20590783    -0.11350
C1530       C  0.55078705  0.62970601  0.19855314    -0.12910
C1531       C  0.63708969  0.70546882  0.41390589    -0.11350
C1532       C  0.63110174  0.69811767  0.44920240    -0.12910
C1533       C  0.94914216  0.86938465  0.30117276    -0.11350
C1534       C  0.91390359  0.86304983  0.29387202    -0.12910
C1535       C  0.69912664  0.94888949  0.36968001    -0.11350
C1536       C  0.70628746  0.91361612  0.36332433    -0.12910
loop_ 
_geom_bond_atom_site_label_1 
_geom_bond_atom_site_label_2 
_geom_bond_distance 
_geom_bond_site_symmetry_2 
_ccdc_geom_bond_type 
O1           Mg3   2.122       .  S
O1           Mg9   2.121       .  S
O1           C36   1.240       .  S
C2           O15   1.240       .  S
C2           O39   1.274       .  A
C2           H41   1.082       .  S
Mg3          O32   2.121       .  S
Mg3          O47   2.323       .  S
Mg3          O43   2.241       .  S
Mg3          O14   2.304       .  S
O4          Mg46   2.120       .  S
O4          Mg29   2.121       .  S
O4           C25   1.240       .  S
O5           C36   1.274       .  A
O5          Mg29   2.305       .  S
C6            O8   1.270       .  A
C6           O20   1.273       .  A
C6         C1534   1.435       .  S
O7           C35   1.274       .  A
O7           Mg9   2.305       .  S
O8          Mg40   2.243       .  S
Mg9          O15   2.121       .  S
Mg9          O23   2.243       .  S
Mg9          O11   2.324       .  S
C10          O48   1.270       .  A
C10          O16   1.274       .  A
C10        C1536   1.435       .  S
O11          C18   1.274       .  A
H12          C25   1.082       .  S
C13          O27   1.240       .  S
C13          O28   1.273       .  A
C13          H38   1.082       .  S
O14          C37   1.273       .  A
O15         Mg29   2.120       .  S
O16         Mg46   2.324       .  S
C17          O30   1.270       .  A
C17          O22   1.274       .  A
C17        C1531   1.435       .  S
C18          O45   1.270       .  A
C18        C1529   1.436       .  S
Mg19         O26   2.122       .  S
Mg19         O27   2.120       .  S
Mg19         O20   2.322       .  S
Mg19         O21   2.304       .  S
Mg19         O48   2.243       .  S
O21          C25   1.274       .  A
O22         Mg29   2.325       .  S
O23          C42   1.270       .  A
O24          C44   1.274       .  A
O24         Mg40   2.326       .  S
O26         Mg40   2.121       .  S
O26          C37   1.240       .  S
O27         Mg46   2.121       .  S
O28         Mg40   2.304       .  S
Mg29         O45   2.243       .  S
O30         Mg46   2.242       .  S
H31          C36   1.082       .  S
O32         Mg40   2.121       .  S
O32          C35   1.240       .  S
H33          C35   1.082       .  S
H34          C37   1.082       .  S
O39         Mg46   2.305       .  S
C42          O47   1.273       .  A
C42        C1525   1.435       .  S
O43          C44   1.270       .  A
C44        C1528   1.435       .  S
O49         Mg51   2.119       .  S
O49         Mg57   2.134       .  S
O49          C84   1.240       .  S
C50          O63   1.240       .  S
C50          O87   1.273       .  A
C50          H89   1.082       .  S
Mg51         O80   2.134       .  S
Mg51         O95   2.313       .  S
Mg51         O91   2.267       .  S
Mg51         O62   2.303       .  S
O52         Mg94   2.133       .  S
O52         Mg77   2.117       .  S
O52          C73   1.240       .  S
O53          C84   1.274       .  A
O53         Mg77   2.305       .  S
C54          O56   1.270       .  A
C54          O68   1.275       .  A
C54        C1523   1.437       .  S
O55          C83   1.273       .  A
O55         Mg57   2.304       .  S
O56         Mg88   2.268       .  S
Mg57         O63   2.118       .  S
Mg57         O71   2.265       .  S
Mg57         O59   2.313       .  S
C58          O96   1.270       .  A
C58          O64   1.276       .  A
C58        C1521   1.437       .  S
O59          C66   1.276       .  A
H60          C73   1.082       .  S
C61          O75   1.240       .  S
C61          O76   1.273       .  A
C61          H86   1.082       .  S
O62          C85   1.273       .  A
O63         Mg77   2.133       .  S
O64         Mg94   2.313       .  S
C65          O78   1.271       .  A
C65          O70   1.276       .  A
C65        C1513   1.439       .  S
C66          O93   1.270       .  A
C66        C1515   1.438       .  S
Mg67         O74   2.117       .  S
Mg67         O75   2.134       .  S
Mg67         O68   2.310       .  S
Mg67         O69   2.303       .  S
Mg67         O96   2.263       .  S
O69          C73   1.273       .  A
O70         Mg77   2.315       .  S
O71          C90   1.270       .  A
O72          C92   1.276       .  A
O72         Mg88   2.312       .  S
O74         Mg88   2.134       .  S
O74          C85   1.240       .  S
O75         Mg94   2.119       .  S
O76         Mg88   2.303       .  S
Mg77         O93   2.266       .  S
O78         Mg94   2.268       .  S
H79          C84   1.082       .  S
O80         Mg88   2.119       .  S
O80          C83   1.240       .  S
H81          C83   1.082       .  S
H82          C85   1.082       .  S
O87         Mg94   2.304       .  S
C90          O95   1.276       .  A
C90        C1517   1.437       .  S
O91          C92   1.270       .  A
C92        C1520   1.437       .  S
O97         Mg99   2.120       .  S
O97        Mg105   2.120       .  S
O97         C132   1.240       .  S
C98         O111   1.240       .  S
C98         O135   1.274       .  A
C98         H137   1.082       .  S
Mg99        O128   2.120       .  S
Mg99        O143   2.327       .  S
Mg99        O139   2.243       .  S
Mg99        O110   2.305       .  S
O100       Mg142   2.120       .  S
O100       Mg125   2.121       .  S
O100        C121   1.240       .  S
O101        C132   1.274       .  A
O101       Mg125   2.304       .  S
C102        O104   1.270       .  A
C102        O116   1.274       .  A
C102       C1504   1.435       .  S
O103        C131   1.273       .  A
O103       Mg105   2.304       .  S
O104       Mg136   2.241       .  S
Mg105       O111   2.122       .  S
Mg105       O119   2.244       .  S
Mg105       O107   2.323       .  S
C106        O144   1.270       .  A
C106        O112   1.274       .  A
C106       C1509   1.435       .  S
O107        C114   1.274       .  A
H108        C121   1.082       .  S
C109        O123   1.240       .  S
C109        O124   1.274       .  A
C109        H134   1.082       .  S
O110        C133   1.274       .  A
O111       Mg125   2.120       .  S
O112       Mg142   2.325       .  S
C113        O126   1.270       .  A
C113        O118   1.274       .  A
C113       C1505   1.435       .  S
C114        O141   1.270       .  A
C114       C1508   1.435       .  S
Mg115       O122   2.122       .  S
Mg115       O123   2.121       .  S
Mg115       O116   2.324       .  S
Mg115       O117   2.304       .  S
Mg115       O144   2.243       .  S
O117        C121   1.273       .  A
O118       Mg125   2.323       .  S
O119        C138   1.270       .  A
O120        C140   1.273       .  A
O120       Mg136   2.322       .  S
O122       Mg136   2.121       .  S
O122        C133   1.240       .  S
O123       Mg142   2.121       .  S
O124       Mg136   2.304       .  S
Mg125       O141   2.242       .  S
O126       Mg142   2.243       .  S
H127        C132   1.082       .  S
O128       Mg136   2.122       .  S
O128        C131   1.240       .  S
H129        C131   1.082       .  S
H130        C133   1.082       .  S
O135       Mg142   2.305       .  S
C138        O143   1.274       .  A
C138       C1501   1.436       .  S
O139        C140   1.270       .  A
C140       C1511   1.435       .  S
C145       C1500   1.437       .  S
C145        C146   1.403       .  A
C145        C150   1.389       .  A
C146        H151   1.084       .  S
C146        C147   1.415       .  A
C147        C148   1.415       .  A
C147        C163   1.486       .  S
C148        H152   1.084       .  S
C148        C149   1.404       .  A
C149       C1497   1.438       .  S
C149        C150   1.389       .  A
C150        H153   1.087       .  S
C154       C1493   1.438       .  S
C154        C155   1.404       .  A
C154        C159   1.389       .  A
C155        H160   1.084       .  S
C155        C156   1.415       .  A
C156        C157   1.415       .  A
C156        C165   1.487       .  S
C157        H161   1.084       .  S
C157        C158   1.404       .  A
C158       C1495   1.438       .  S
C158        C159   1.389       .  A
C159        H162   1.087       .  S
C163        C164   1.406       .  A
C163        C168   1.406       .  A
C164        H169   1.084       .  S
C164        C165   1.406       .  A
C165        C166   1.408       .  A
C166        H170   1.084       .  S
C166        C167   1.408       .  A
C167        C168   1.406       .  A
C167        C174   1.488       .  S
C168        H171   1.084       .  S
C172       C1489   1.438       .  S
C172        C173   1.404       .  A
C172        C177   1.391       .  A
C173        H178   1.084       .  S
C173        C174   1.414       .  A
C174        C175   1.415       .  A
C175        H179   1.084       .  S
C175        C176   1.404       .  A
C176       C1491   1.440       .  S
C176        C177   1.389       .  A
C177        H180   1.087       .  S
O181       Mg183   2.122       .  S
O181       Mg189   2.121       .  S
O181        C216   1.240       .  S
C182        O195   1.240       .  S
C182        O219   1.273       .  A
C182        H221   1.082       .  S
Mg183       O212   2.121       .  S
Mg183       O227   2.324       .  S
Mg183       O223   2.243       .  S
Mg183       O194   2.304   1_655  S
O184       Mg226   2.121       .  S
O184       Mg209   2.121   1_455  S
O184        C205   1.240       .  S
O185        C216   1.274       .  A
O185       Mg209   2.305       .  S
C186        O188   1.270       .  A
C186        O200   1.273       .  A
C186       C1479   1.434       .  S
O187        C215   1.273       .  A
O187       Mg189   2.304       .  S
O188       Mg220   2.243       .  S
Mg189       O195   2.121       .  S
Mg189       O203   2.240       .  S
Mg189       O191   2.321       .  S
C190        O228   1.269       .  A
C190        O196   1.274       .  A
C190       C1490   1.435       .  S
O191        C198   1.273       .  A
H192        C205   1.082       .  S
C193        O207   1.240       .  S
C193        O208   1.274       .  A
C193        H218   1.082       .  S
O194        C217   1.273       .  A
O195       Mg209   2.121       .  S
O196       Mg226   2.325       .  S
C197        O210   1.270   1_655  A
C197        O202   1.274       .  A
C197       C1486   1.436       .  S
C198        O225   1.270       .  A
C198       C1487   1.435       .  S
Mg199       O206   2.121       .  S
Mg199       O207   2.121       .  S
Mg199       O200   2.320       .  S
Mg199       O201   2.304       .  S
Mg199       O228   2.240       .  S
O201        C205   1.273       .  A
O202       Mg209   2.325       .  S
O203        C222   1.269       .  A
O204        C224   1.274       .  A
O204       Mg220   2.326       .  S
O206       Mg220   2.121       .  S
O206        C217   1.240       .  S
O207       Mg226   2.121       .  S
O208       Mg220   2.305       .  S
Mg209       O225   2.243       .  S
O210       Mg226   2.243       .  S
H211        C216   1.082       .  S
O212       Mg220   2.121   1_655  S
O212        C215   1.240       .  S
H213        C215   1.082       .  S
H214        C217   1.082       .  S
O219       Mg226   2.304   1_655  S
C222        O227   1.274       .  A
C222       C1484   1.435       .  S
O223        C224   1.270   1_655  A
C224       C1482   1.436       .  S
O229       Mg231   2.121       .  S
O229       Mg237   2.121       .  S
O229        C264   1.240       .  S
C230        O243   1.240       .  S
C230        O267   1.274       .  A
C230        H269   1.082       .  S
Mg231       O260   2.121       .  S
Mg231       O275   2.325       .  S
Mg231       O271   2.242       .  S
Mg231       O242   2.305   1_565  S
O232       Mg274   2.121       .  S
O232       Mg257   2.121   1_545  S
O232        C253   1.240       .  S
O233        C264   1.273       .  A
O233       Mg257   2.304       .  S
C234        O236   1.269       .  A
C234        O248   1.274       .  A
C234       C1471   1.435       .  S
O235        C263   1.273       .  A
O235       Mg237   2.304       .  S
O236       Mg268   2.240       .  S
Mg237       O243   2.121       .  S
Mg237       O251   2.243       .  S
Mg237       O239   2.324       .  S
C238        O276   1.270       .  A
C238        O244   1.274       .  A
C238       C1496   1.436       .  S
O239        C246   1.274       .  A
H240        C253   1.082       .  S
C241        O255   1.240       .  S
C241        O256   1.273       .  A
C241        H266   1.082       .  S
O242        C265   1.274       .  A
O243       Mg257   2.121       .  S
O244       Mg274   2.325       .  S
C245        O258   1.270   1_565  A
C245        O250   1.273       .  A
C245       C1477   1.434       .  S
C246        O273   1.269       .  A
C246       C1473   1.435       .  S
Mg247       O254   2.122       .  S
Mg247       O255   2.121       .  S
Mg247       O248   2.324       .  S
Mg247       O249   2.304       .  S
Mg247       O276   2.243       .  S
O249        C253   1.273       .  A
O250       Mg257   2.320       .  S
O251        C270   1.270       .  A
O252        C272   1.273       .  A
O252       Mg268   2.321       .  S
O254       Mg268   2.121       .  S
O254        C265   1.240       .  S
O255       Mg274   2.121       .  S
O256       Mg268   2.304       .  S
Mg257       O273   2.240       .  S
O258       Mg274   2.243       .  S
H259        C264   1.082       .  S
O260       Mg268   2.121   1_565  S
O260        C263   1.240       .  S
H261        C263   1.082       .  S
H262        C265   1.082       .  S
O267       Mg274   2.305   1_565  S
C270        O275   1.274       .  A
C270       C1475   1.436       .  S
O271        C272   1.270   1_565  A
C272       C1469   1.434       .  S
C277        C278   1.406       .  A
C277        C282   1.408       .  A
C277        C308   1.488       .  S
C278        H283   1.084       .  S
C278        C279   1.406       .  A
C279        C280   1.406       .  A
C279        C288   1.486       .  S
C280        H284   1.084       .  S
C280        C281   1.406       .  A
C281        C282   1.408       .  A
C281        C299   1.487       .  S
C282        H285   1.084       .  S
C286       C1468   1.438       .  S
C286        C287   1.403       .  A
C286        C291   1.389       .  A
C287        H292   1.084       .  S
C287        C288   1.415       .  A
C288        C289   1.415       .  A
C289        H293   1.084       .  S
C289        C290   1.403       .  A
C290       C1465   1.438       .  S
C290        C291   1.389       .  A
C291        H294   1.087       .  S
C295       C1476   1.438       .  S
C295        C296   1.389       .  A
C295        C300   1.404       .  A
C296        H301   1.087       .  S
C296        C297   1.389       .  A
C297       C1532   1.438       .  S
C297        C298   1.404       .  A
C298        H302   1.084       .  S
C298        C299   1.415       .  A
C299        C300   1.416       .  A
C300        H303   1.084       .  S
C304       C1519   1.440       .  S
C304        C305   1.389       .  A
C304        C309   1.404       .  A
C305        H310   1.087       .  S
C305        C306   1.391       .  A
C306       C1483   1.438       .  S
C306        C307   1.404       .  A
C307        H311   1.084       .  S
C307        C308   1.414       .  A
C308        C309   1.415       .  A
C309        H312   1.084       .  S
O313       Mg315   2.121   1_554  S
O313       Mg321   2.121       .  S
O313        C348   1.240       .  S
C314        O327   1.240       .  S
C314        O351   1.273       .  A
C314        H353   1.082       .  S
Mg315       O344   2.121       .  S
Mg315       O359   2.323       .  S
Mg315       O355   2.241       .  S
Mg315       O326   2.304       .  S
O316       Mg358   2.121       .  S
O316       Mg341   2.121       .  S
O316        C337   1.240       .  S
O317        C348   1.273       .  A
O317       Mg341   2.304       .  S
C318        O320   1.270       .  A
C318        O332   1.273       .  A
C318       C1467   1.435       .  S
O319        C347   1.273       .  A
O319       Mg321   2.304   1_556  S
O320       Mg352   2.242       .  S
Mg321       O327   2.121       .  S
Mg321       O335   2.241       .  S
Mg321       O323   2.322       .  S
C322        O360   1.270   1_554  A
C322        O328   1.273       .  A
C322       C1457   1.434       .  S
O323        C330   1.273       .  A
H324        C337   1.082       .  S
C325        O339   1.240       .  S
C325        O340   1.273       .  A
C325        H350   1.082       .  S
O326        C349   1.273       .  A
O327       Mg341   2.121       .  S
O328       Mg358   2.323       .  S
C329        O342   1.270       .  A
C329        O334   1.273       .  A
C329       C1459   1.435       .  S
C330        O357   1.270       .  A
C330       C1499   1.435       .  S
Mg331       O338   2.120       .  S
Mg331       O339   2.121       .  S
Mg331       O332   2.322       .  S
Mg331       O333   2.304   1_556  S
Mg331       O360   2.241       .  S
O333        C337   1.273       .  A
O334       Mg341   2.322       .  S
O335        C354   1.270   1_554  A
O336        C356   1.273       .  A
O336       Mg352   2.322       .  S
O338       Mg352   2.121       .  S
O338        C349   1.240       .  S
O339       Mg358   2.120   1_556  S
O340       Mg352   2.304       .  S
Mg341       O357   2.242       .  S
O342       Mg358   2.241       .  S
H343        C348   1.082       .  S
O344       Mg352   2.121       .  S
O344        C347   1.240       .  S
H345        C347   1.082       .  S
H346        C349   1.082       .  S
O351       Mg358   2.304       .  S
C354        O359   1.273       .  A
C354       C1461   1.435       .  S
O355        C356   1.270       .  A
C356       C1463   1.434       .  S
O361       Mg363   2.122       .  S
O361       Mg369   2.121       .  S
O361        C396   1.240       .  S
C362        O375   1.240       .  S
C362        O399   1.274       .  A
C362        H401   1.082       .  S
Mg363       O392   2.121       .  S
Mg363       O407   2.322       .  S
Mg363       O403   2.241       .  S
Mg363       O374   2.304       .  S
O364       Mg406   2.120       .  S
O364       Mg389   2.122       .  S
O364        C385   1.240       .  S
O365        C396   1.273       .  A
O365       Mg389   2.304       .  S
C366        O368   1.270       .  A
C366        O380   1.274       .  A
C366       C1448   1.436       .  S
O367        C395   1.274       .  A
O367       Mg369   2.305       .  S
O368       Mg400   2.243       .  S
Mg369       O375   2.121       .  S
Mg369       O383   2.243       .  S
Mg369       O371   2.327       .  S
C370        O408   1.270       .  A
C370        O376   1.273       .  A
C370       C1456   1.435       .  S
O371        C378   1.274       .  A
H372        C385   1.082       .  S
C373        O387   1.240       .  S
C373        O388   1.273       .  A
C373        H398   1.082       .  S
O374        C397   1.274       .  A
O375       Mg389   2.121       .  S
O376       Mg406   2.322       .  S
C377        O390   1.269       .  A
C377        O382   1.274       .  A
C377       C1450   1.435       .  S
C378        O405   1.270       .  A
C378       C1453   1.436       .  S
Mg379       O386   2.121       .  S
Mg379       O387   2.121       .  S
Mg379       O380   2.327       .  S
Mg379       O381   2.305       .  S
Mg379       O408   2.243       .  S
O381        C385   1.274       .  A
O382       Mg389   2.325       .  S
O383        C402   1.270       .  A
O384        C404   1.274       .  A
O384       Mg400   2.324       .  S
O386       Mg400   2.121       .  S
O386        C397   1.240       .  S
O387       Mg406   2.121       .  S
O388       Mg400   2.304       .  S
Mg389       O405   2.244       .  S
O390       Mg406   2.241       .  S
H391        C396   1.082       .  S
O392       Mg400   2.122       .  S
O392        C395   1.240       .  S
H393        C395   1.082       .  S
H394        C397   1.082       .  S
O399       Mg406   2.304       .  S
C402        O407   1.273       .  A
C402       C1445   1.435       .  S
O403        C404   1.270       .  A
C404       C1451   1.435       .  S
O409       Mg411   2.121   1_655  S
O409       Mg417   2.121       .  S
O409        C444   1.240       .  S
C410        O423   1.240       .  S
C410        O447   1.273       .  A
C410        H449   1.082       .  S
Mg411       O440   2.121       .  S
Mg411       O455   2.320       .  S
Mg411       O451   2.240       .  S
Mg411       O422   2.304   1_554  S
O412       Mg454   2.121       .  S
O412       Mg437   2.122   1_556  S
O412        C433   1.240       .  S
O413        C444   1.273       .  A
O413       Mg437   2.304   1_565  S
C414        O416   1.270   1_545  A
C414        O428   1.274       .  A
C414       C1433   1.436       .  S
O415        C443   1.274       .  A
O415       Mg417   2.305   1_455  S
O416       Mg448   2.243       .  S
Mg417       O423   2.121   1_565  S
Mg417       O431   2.243       .  S
Mg417       O419   2.325       .  S
C418        O456   1.270   1_655  A
C418        O424   1.273       .  A
C418       C1441   1.434       .  S
O419        C426   1.274       .  A
H420        C433   1.082       .  S
C421        O435   1.240       .  S
C421        O436   1.273       .  A
C421        H446   1.082       .  S
O422        C445   1.273       .  A
O423       Mg437   2.121       .  S
O424       Mg454   2.321       .  S
C425        O438   1.270   1_554  A
C425        O430   1.274       .  A
C425       C1437   1.435       .  S
C426        O453   1.270   1_565  A
C426       C1440   1.436       .  S
Mg427       O434   2.121   1_545  S
Mg427       O435   2.121       .  S
Mg427       O428   2.326       .  S
Mg427       O429   2.305   1_455  S
Mg427       O456   2.243       .  S
O429        C433   1.274       .  A
O430       Mg437   2.324       .  S
O431        C450   1.270   1_655  A
O432        C452   1.274       .  A
O432       Mg448   2.324       .  S
O434       Mg448   2.121       .  S
O434        C445   1.240       .  S
O435       Mg454   2.122   1_455  S
O436       Mg448   2.304   1_545  S
Mg437       O453   2.243       .  S
O438       Mg454   2.241       .  S
H439        C444   1.082       .  S
O440       Mg448   2.122   1_554  S
O440        C443   1.240       .  S
H441        C443   1.082       .  S
H442        C445   1.082       .  S
O447       Mg454   2.304   1_554  S
C450        O455   1.273       .  A
C450       C1436   1.434       .  S
O451        C452   1.269   1_554  A
C452       C1443   1.435       .  S
C457       C1432   1.438       .  S
C457        C458   1.389       .  A
C457        C462   1.403       .  A
C458        H463   1.087   1_545  S
C458        C459   1.389   1_545  A
C459       C1535   1.438       .  S
C459        C460   1.404   1_565  A
C460        H464   1.084       .  S
C460        C461   1.415       .  A
C461        C462   1.415       .  A
C461        C468   1.487       .  S
C462        H465   1.084       .  S
C466        C467   1.407       .  A
C466        C471   1.408       .  A
C466        C477   1.488       .  S
C467        H472   1.084       .  S
C467        C468   1.406       .  A
C468        C469   1.407       .  A
C469        H473   1.084       .  S
C469        C470   1.407       .  A
C470        C471   1.408       .  A
C470        C488   1.488       .  S
C471        H474   1.084       .  S
C475       C1428   1.438       .  S
C475        C476   1.404       .  A
C475        C480   1.389       .  A
C476        H481   1.084       .  S
C476        C477   1.415       .  A
C477        C478   1.416       .  A
C478        H482   1.084       .  S
C478        C479   1.404       .  A
C479       C1429   1.439       .  S
C479        C480   1.389       .  A
C480        H483   1.087       .  S
C484       C1452   1.438       .  S
C484        C485   1.391       .  A
C484        C489   1.404       .  A
C485        H490   1.087       .  S
C485        C486   1.389       .  A
C486       C1518   1.440       .  S
C486        C487   1.405       .  A
C487        H491   1.084       .  S
C487        C488   1.415       .  A
C488        C489   1.415       .  A
C489        H492   1.084       .  S
C493       C1424   1.438       .  S
C493        C494   1.404   1_545  A
C493        C498   1.389   1_545  A
C494        H499   1.084       .  S
C494        C495   1.415       .  A
C495        C496   1.415       .  A
C495        C504   1.486       .  S
C496        H500   1.084       .  S
C496        C497   1.403       .  A
C497       C1425   1.438       .  S
C497        C498   1.389       .  A
C498        H501   1.087   1_565  S
C502        C503   1.407       .  A
C502        C507   1.408       .  A
C502        C524   1.488       .  S
C503        H508   1.084       .  S
C503        C504   1.406       .  A
C504        C505   1.406       .  A
C505        H509   1.084       .  S
C505        C506   1.406       .  A
C506        C507   1.408       .  A
C506        C515   1.487       .  S
C507        H510   1.084       .  S
C511       C1421   1.439       .  S
C511        C512   1.389       .  A
C511        C516   1.404       .  A
C512        H517   1.087       .  S
C512        C513   1.389       .  A
C513       C1506   1.438       .  S
C513        C514   1.404       .  A
C514        H518   1.084       .  S
C514        C515   1.415       .  A
C515        C516   1.416       .  A
C516        H519   1.084       .  S
C520       C1419   1.440       .  S
C520        C521   1.389       .  A
C520        C525   1.404       .  A
C521        H526   1.087       .  S
C521        C522   1.391       .  A
C522       C1449   1.438       .  S
C522        C523   1.404       .  A
C523        H527   1.084       .  S
C523        C524   1.415       .  A
C524        C525   1.415       .  A
C525        H528   1.084       .  S
O529       Mg531   2.122   1_554  S
O529       Mg537   2.121       .  S
O529        C564   1.240       .  S
C530        O543   1.240       .  S
C530        O567   1.273       .  A
C530        H569   1.082       .  S
Mg531       O560   2.121       .  S
Mg531       O575   2.323       .  S
Mg531       O571   2.242       .  S
Mg531       O542   2.304   1_545  S
O532       Mg574   2.121       .  S
O532       Mg557   2.122   1_565  S
O532        C553   1.240       .  S
O533        C564   1.273       .  A
O533       Mg557   2.305       .  S
C534        O536   1.270       .  A
C534        O548   1.274       .  A
C534       C1422   1.436       .  S
O535        C563   1.274       .  A
O535       Mg537   2.305   1_556  S
O536       Mg568   2.244       .  S
Mg537       O543   2.121       .  S
Mg537       O551   2.244       .  S
Mg537       O539   2.326       .  S
C538        O576   1.270   1_554  A
C538        O544   1.273       .  A
C538       C1418   1.435       .  S
O539        C546   1.274       .  A
H540        C553   1.082       .  S
C541        O555   1.240       .  S
C541        O556   1.273       .  A
C541        H566   1.082       .  S
O542        C565   1.274       .  A
O543       Mg557   2.121       .  S
O544       Mg574   2.322       .  S
C545        O558   1.270   1_545  A
C545        O550   1.274       .  A
C545       C1413   1.435       .  S
C546        O573   1.270       .  A
C546       C1430   1.436       .  S
Mg547       O554   2.121       .  S
Mg547       O555   2.121       .  S
Mg547       O548   2.325       .  S
Mg547       O549   2.305   1_556  S
Mg547       O576   2.243       .  S
O549        C553   1.274       .  A
O550       Mg557   2.326       .  S
O551        C570   1.270   1_554  A
O552        C572   1.274       .  A
O552       Mg568   2.325       .  S
O554       Mg568   2.121       .  S
O554        C565   1.240       .  S
O555       Mg574   2.122   1_556  S
O556       Mg568   2.304       .  S
Mg557       O573   2.244       .  S
O558       Mg574   2.242       .  S
H559        C564   1.082       .  S
O560       Mg568   2.122   1_545  S
O560        C563   1.240       .  S
H561        C563   1.082       .  S
H562        C565   1.082       .  S
O567       Mg574   2.304   1_545  S
C570        O575   1.273       .  A
C570       C1415   1.435       .  S
O571        C572   1.270   1_545  A
C572       C1411   1.435       .  S
C577       C1416   1.438       .  S
C577        C578   1.404       .  A
C577        C582   1.389       .  A
C578        H583   1.084       .  S
C578        C579   1.415       .  A
C579        C580   1.415       .  A
C579        C586   1.486       .  S
C580        H584   1.084       .  S
C580        C581   1.403   1_556  A
C581       C1410   1.437       .  S
C581        C582   1.389   1_554  A
C582        H585   1.087   1_556  S
C586        C587   1.406       .  A
C586        C591   1.407       .  A
C587        H592   1.084       .  S
C587        C588   1.406       .  A
C588        C589   1.408       .  A
C588        C599   1.487       .  S
C589        H593   1.084       .  S
C589        C590   1.407       .  A
C590        C591   1.407       .  A
C590        C606   1.488       .  S
C591        H594   1.084       .  S
C595       C1407   1.439       .  S
C595        C596   1.389       .  A
C595        C600   1.404       .  A
C596        H601   1.087       .  S
C596        C597   1.389       .  A
C597       C1446   1.438       .  S
C597        C598   1.403       .  A
C598        H602   1.084       .  S
C598        C599   1.415       .  A
C599        C600   1.416       .  A
C600        H603   1.084       .  S
C604       C1503   1.438       .  S
C604        C605   1.404       .  A
C604        C609   1.390       .  A
C605        H610   1.084       .  S
C605        C606   1.415       .  A
C606        C607   1.415       .  A
C607        H611   1.084       .  S
C607        C608   1.404       .  A
C608       C1405   1.439       .  S
C608        C609   1.389       .  A
C609        H612   1.087       .  S
C613       C1403   1.438       .  S
C613        C614   1.389   1_556  A
C613        C618   1.403   1_556  A
C614        H619   1.087   1_554  S
C614        C615   1.389       .  A
C615       C1417   1.438       .  S
C615        C616   1.403       .  A
C616        H620   1.084       .  S
C616        C617   1.415       .  A
C617        C618   1.415       .  A
C617        C633   1.486       .  S
C618        H621   1.084       .  S
C622       C1455   1.438       .  S
C622        C623   1.389       .  A
C622        C627   1.404       .  A
C623        H628   1.087       .  S
C623        C624   1.389       .  A
C624       C1530   1.439       .  S
C624        C625   1.404       .  A
C625        H629   1.084       .  S
C625        C626   1.416       .  A
C626        C627   1.415       .  A
C626        C635   1.487       .  S
C627        H630   1.084       .  S
C631        C632   1.407       .  A
C631        C636   1.408       .  A
C631        C642   1.488       .  S
C632        H637   1.084       .  S
C632        C633   1.406       .  A
C633        C634   1.406       .  A
C634        H638   1.084       .  S
C634        C635   1.406       .  A
C635        C636   1.408       .  A
C636        H639   1.084       .  S
C640       C1399   1.438       .  S
C640        C641   1.404       .  A
C640        C645   1.390       .  A
C641        H646   1.084       .  S
C641        C642   1.414       .  A
C642        C643   1.415       .  A
C643        H647   1.084       .  S
C643        C644   1.404       .  A
C644       C1401   1.439       .  S
C644        C645   1.389       .  A
C645        H648   1.087       .  S
O649       Mg651   2.118   1_455  S
O649       Mg657   2.134       .  S
O649        C684   1.240   1_456  S
C650        O663   1.240   1_556  S
C650        O687   1.273   1_556  A
C650        H689   1.082       .  S
Mg651       O680   2.134       .  S
Mg651       O695   2.311   1_655  S
Mg651       O691   2.264       .  S
Mg651       O662   2.304       .  S
O652       Mg694   2.134       .  S
O652       Mg677   2.120       .  S
O652        C673   1.240   1_455  S
O653        C684   1.273   1_455  A
O653       Mg677   2.303       .  S
C654        O656   1.271       .  A
C654        O668   1.276       .  A
C654       C1392   1.438       .  S
O655        C683   1.273       .  A
O655       Mg657   2.304       .  S
O656       Mg688   2.268       .  S
Mg657       O663   2.118   1_556  S
Mg657       O671   2.268       .  S
Mg657       O659   2.314   1_556  S
C658        O696   1.271       .  A
C658        O664   1.275       .  A
C658       C1393   1.437       .  S
O659        C666   1.276       .  A
H660        C673   1.082       .  S
C661        O675   1.240   1_456  S
C661        O676   1.273   1_455  A
C661        H686   1.082       .  S
O662        C685   1.273   1_556  A
O663       Mg677   2.134       .  S
O664       Mg694   2.311   1_655  S
C665        O678   1.270       .  A
C665        O670   1.276       .  A
C665       C1402   1.437       .  S
C666        O693   1.271       .  A
C666       C1398   1.438       .  S
Mg667       O674   2.118   1_554  S
Mg667       O675   2.134       .  S
Mg667       O668   2.315   1_554  S
Mg667       O669   2.304       .  S
Mg667       O696   2.268       .  S
O669        C673   1.273       .  A
O670       Mg677   2.313       .  S
O671        C690   1.270       .  A
O672        C692   1.276       .  A
O672       Mg688   2.313       .  S
O674       Mg688   2.134       .  S
O674        C685   1.240   1_556  S
O675       Mg694   2.118   1_655  S
O676       Mg688   2.303       .  S
Mg677       O693   2.268       .  S
O678       Mg694   2.263       .  S
H679        C684   1.082       .  S
O680       Mg688   2.120       .  S
O680        C683   1.240   1_655  S
H681        C683   1.082       .  S
H682        C685   1.082       .  S
O687       Mg694   2.304       .  S
C690        O695   1.275       .  A
C690       C1396   1.437       .  S
O691        C692   1.270       .  A
C692       C1406   1.437       .  S
C697        C698   1.406       .  A
C697        C702   1.406       .  A
C697        C726   1.486       .  S
C698        H703   1.084       .  S
C698        C699   1.406       .  A
C699        C700   1.406       .  A
C699        C719   1.486       .  S
C700        H704   1.084       .  S
C700        C701   1.406       .  A
C701        C702   1.406       .  A
C701        C708   1.486       .  S
C702        H705   1.084       .  S
C706       C1390   1.438       .  S
C706        C707   1.403   1_455  A
C706        C711   1.389   1_455  A
C707        H712   1.084       .  S
C707        C708   1.415       .  A
C708        C709   1.415       .  A
C709        H713   1.084       .  S
C709        C710   1.403       .  A
C710       C1442   1.437       .  S
C710        C711   1.389       .  A
C711        H714   1.087   1_655  S
C715       C1470   1.437       .  S
C715        C716   1.389       .  A
C715        C720   1.403       .  A
C716        H721   1.087   1_545  S
C716        C717   1.389   1_545  A
C717       C1507   1.438       .  S
C717        C718   1.403   1_565  A
C718        H722   1.084       .  S
C718        C719   1.415       .  A
C719        C720   1.415       .  A
C720        H723   1.084       .  S
C724       C1488   1.437       .  S
C724        C725   1.403       .  A
C724        C729   1.389       .  A
C725        H730   1.084       .  S
C725        C726   1.415       .  A
C726        C727   1.415       .  A
C727        H731   1.084       .  S
C727        C728   1.403       .  A
C728       C1387   1.437       .  S
C728        C729   1.389       .  A
C729        H732   1.087       .  S
C733       C1385   1.438       .  S
C733        C734   1.389   1_655  A
C733        C738   1.404   1_655  A
C734        H739   1.087   1_455  S
C734        C735   1.389       .  A
C735       C1383   1.438       .  S
C735        C736   1.403       .  A
C736        H740   1.084       .  S
C736        C737   1.415       .  A
C737        C738   1.415       .  A
C737        C755   1.487       .  S
C738        H741   1.084       .  S
C742       C1381   1.438       .  S
C742        C743   1.391   1_556  A
C742        C747   1.404   1_556  A
C743        H748   1.087   1_554  S
C743        C744   1.389       .  A
C744       C1397   1.441       .  S
C744        C745   1.405       .  A
C745        H749   1.084       .  S
C745        C746   1.416       .  A
C746        C747   1.415       .  A
C746        C753   1.490       .  S
C747        H750   1.084       .  S
C751        C752   1.409       .  A
C751        C756   1.407       .  A
C751        C762   1.490       .  S
C752        H757   1.084       .  S
C752        C753   1.409       .  A
C753        C754   1.407       .  A
C754        H758   1.084       .  S
C754        C755   1.406       .  A
C755        C756   1.406       .  A
C756        H759   1.084       .  S
C760       C1414   1.439       .  S
C760        C761   1.405       .  A
C760        C765   1.391       .  A
C761        H766   1.084       .  S
C761        C762   1.415       .  A
C762        C763   1.416       .  A
C763        H767   1.084       .  S
C763        C764   1.405   1_545  A
C764       C1379   1.441       .  S
C764        C765   1.389   1_565  A
C765        H768   1.087   1_545  S
O769       Mg771   2.121       .  S
O769       Mg777   2.120       .  S
O769        C804   1.240       .  S
C770        O783   1.240       .  S
C770        O807   1.273       .  A
C770        H809   1.082       .  S
Mg771       O800   2.120       .  S
Mg771       O815   2.325       .  S
Mg771       O811   2.242       .  S
Mg771       O782   2.305       .  S
O772       Mg814   2.121       .  S
O772       Mg797   2.121       .  S
O772        C793   1.240       .  S
O773        C804   1.273       .  A
O773       Mg797   2.304       .  S
C774        O776   1.270       .  A
C774        O788   1.274       .  A
C774       C1408   1.436       .  S
O775        C803   1.274       .  A
O775       Mg777   2.304       .  S
O776       Mg808   2.243       .  S
Mg777       O783   2.122       .  S
Mg777       O791   2.243       .  S
Mg777       O779   2.323       .  S
C778        O816   1.270       .  A
C778        O784   1.273       .  A
C778       C1377   1.435       .  S
O779        C786   1.274       .  A
H780        C793   1.082       .  S
C781        O795   1.240       .  S
C781        O796   1.274       .  A
C781        H806   1.082       .  S
O782        C805   1.274       .  A
O783       Mg797   2.121       .  S
O784       Mg814   2.323       .  S
C785        O798   1.270       .  A
C785        O790   1.274       .  A
C785       C1382   1.435       .  S
C786        O813   1.270       .  A
C786       C1389   1.435       .  S
Mg787       O794   2.121       .  S
Mg787       O795   2.121       .  S
Mg787       O788   2.325       .  S
Mg787       O789   2.305       .  S
Mg787       O816   2.243       .  S
O789        C793   1.274       .  A
O790       Mg797   2.326       .  S
O791        C810   1.270       .  A
O792        C812   1.274       .  A
O792       Mg808   2.324       .  S
O794       Mg808   2.120       .  S
O794        C805   1.240       .  S
O795       Mg814   2.121       .  S
O796       Mg808   2.305       .  S
Mg797       O813   2.242       .  S
O798       Mg814   2.241       .  S
H799        C804   1.082       .  S
O800       Mg808   2.121       .  S
O800        C803   1.240       .  S
H801        C803   1.082       .  S
H802        C805   1.082       .  S
O807       Mg814   2.304       .  S
C810        O815   1.274       .  A
C810       C1423   1.436       .  S
O811        C812   1.270       .  A
C812       C1494   1.435       .  S
O817       Mg819   2.121       .  S
O817       Mg825   2.120       .  S
O817        C852   1.240       .  S
C818        O831   1.240       .  S
C818        O855   1.273       .  A
C818        H857   1.082       .  S
Mg819       O848   2.120       .  S
Mg819       O863   2.322       .  S
Mg819       O859   2.242       .  S
Mg819       O830   2.304       .  S
O820       Mg862   2.120       .  S
O820       Mg845   2.121       .  S
O820        C841   1.240       .  S
O821        C852   1.274       .  A
O821       Mg845   2.305       .  S
C822        O824   1.270       .  A
C822        O836   1.273       .  A
C822       C1375   1.435       .  S
O823        C851   1.274       .  A
O823       Mg825   2.304       .  S
O824       Mg856   2.242       .  S
Mg825       O831   2.121       .  S
Mg825       O839   2.242       .  S
Mg825       O827   2.323       .  S
C826        O864   1.270       .  A
C826        O832   1.273       .  A
C826       C1388   1.435       .  S
O827        C834   1.273       .  A
H828        C841   1.082       .  S
C829        O843   1.240       .  S
C829        O844   1.274       .  A
C829        H854   1.082       .  S
O830        C853   1.273       .  A
O831       Mg845   2.120       .  S
O832       Mg862   2.322       .  S
C833        O846   1.270       .  A
C833        O838   1.274       .  A
C833       C1386   1.435       .  S
C834        O861   1.270       .  A
C834       C1374   1.435       .  S
Mg835       O842   2.121       .  S
Mg835       O843   2.120       .  S
Mg835       O836   2.323       .  S
Mg835       O837   2.304       .  S
Mg835       O864   2.242       .  S
O837        C841   1.274       .  A
O838       Mg845   2.325       .  S
O839        C858   1.270       .  A
O840        C860   1.274       .  A
O840       Mg856   2.324       .  S
O842       Mg856   2.120       .  S
O842        C853   1.240       .  S
O843       Mg862   2.121       .  S
O844       Mg856   2.305       .  S
Mg845       O861   2.242       .  S
O846       Mg862   2.242       .  S
H847        C852   1.082       .  S
O848       Mg856   2.120       .  S
O848        C851   1.240       .  S
H849        C851   1.082       .  S
H850        C853   1.082       .  S
O855       Mg862   2.304       .  S
C858        O863   1.273       .  A
C858       C1409   1.435       .  S
O859        C860   1.270       .  A
C860       C1498   1.435       .  S
C865       C1371   1.440       .  S
C865        C866   1.389   1_554  A
C865        C870   1.404   1_554  A
C866        H871   1.087   1_556  S
C866        C867   1.390       .  A
C867       C1444   1.438       .  S
C867        C868   1.404       .  A
C868        H872   1.084       .  S
C868        C869   1.414       .  A
C869        C870   1.415       .  A
C869        C876   1.488       .  S
C870        H873   1.084       .  S
C874        C875   1.406       .  A
C874        C879   1.406       .  A
C874        C896   1.486       .  S
C875        H880   1.084       .  S
C875        C876   1.407       .  A
C876        C877   1.408       .  A
C877        H881   1.084       .  S
C877        C878   1.408       .  A
C878        C879   1.406       .  A
C878        C887   1.487       .  S
C879        H882   1.084       .  S
C883       C1481   1.438       .  S
C883        C884   1.389       .  A
C883        C888   1.404       .  A
C884        H889   1.087   1_455  S
C884        C885   1.389   1_455  A
C885       C1512   1.438       .  S
C885        C886   1.404   1_655  A
C886        H890   1.084       .  S
C886        C887   1.415       .  A
C887        C888   1.416       .  A
C888        H891   1.084       .  S
C892       C1378   1.438       .  S
C892        C893   1.389       .  A
C892        C897   1.404       .  A
C893        H898   1.087       .  S
C893        C894   1.389       .  A
C894       C1464   1.437       .  S
C894        C895   1.403       .  A
C895        H899   1.084       .  S
C895        C896   1.415       .  A
C896        C897   1.415       .  A
C897        H900   1.084       .  S
O901       Mg903   2.119       .  S
O901       Mg909   2.134       .  S
O901        C936   1.240       .  S
C902        O915   1.240       .  S
C902        O939   1.273       .  A
C902        H941   1.082       .  S
Mg903       O932   2.134       .  S
Mg903       O947   2.313       .  S
Mg903       O943   2.268       .  S
Mg903       O914   2.304       .  S
O904       Mg946   2.134       .  S
O904       Mg929   2.119       .  S
O904        C925   1.240       .  S
O905        C936   1.273       .  A
O905       Mg929   2.303       .  S
C906        O908   1.270       .  A
C906        O920   1.276       .  A
C906       C1369   1.437       .  S
O907        C935   1.273       .  A
O907       Mg909   2.303       .  S
O908       Mg940   2.266       .  S
Mg909       O915   2.118       .  S
Mg909       O923   2.264       .  S
Mg909       O911   2.310       .  S
C910        O948   1.270       .  A
C910        O916   1.276       .  A
C910       C1420   1.437       .  S
O911        C918   1.275       .  A
H912        C925   1.082       .  S
C913        O927   1.240       .  S
C913        O928   1.273       .  A
C913        H938   1.082       .  S
O914        C937   1.273       .  A
O915       Mg929   2.134       .  S
O916       Mg946   2.313       .  S
C917        O930   1.270       .  A
C917        O922   1.276       .  A
C917       C1492   1.437       .  S
C918        O945   1.271       .  A
C918       C1368   1.437       .  S
Mg919       O926   2.118       .  S
Mg919       O927   2.134       .  S
Mg919       O920   2.313       .  S
Mg919       O921   2.304       .  S
Mg919       O948   2.265       .  S
O921        C925   1.273       .  A
O922       Mg929   2.312       .  S
O923        C942   1.270       .  A
O924        C944   1.276       .  A
O924       Mg940   2.314       .  S
O926       Mg940   2.134       .  S
O926        C937   1.240       .  S
O927       Mg946   2.119       .  S
O928       Mg940   2.305       .  S
Mg929       O945   2.268       .  S
O930       Mg946   2.266       .  S
H931        C936   1.082       .  S
O932       Mg940   2.117       .  S
O932        C935   1.240       .  S
H933        C935   1.082       .  S
H934        C937   1.082       .  S
O939       Mg946   2.303       .  S
C942        O947   1.276       .  A
C942       C1372   1.437       .  S
O943        C944   1.271       .  A
C944       C1380   1.438       .  S
C949       C1373   1.438       .  S
C949        C950   1.389   1_545  A
C949        C954   1.404   1_545  A
C950        H955   1.087   1_565  S
C950        C951   1.389       .  A
C951       C1439   1.439       .  S
C951        C952   1.404       .  A
C952        H956   1.084       .  S
C952        C953   1.416       .  A
C953        C954   1.415       .  A
C953        C958   1.487       .  S
C954        H957   1.084       .  S
C958        C959   1.408       .  A
C958        C963   1.406       .  A
C959        H964   1.084       .  S
C959        C960   1.408       .  A
C960        C961   1.407       .  A
C960        C980   1.488       .  S
C961        H965   1.084       .  S
C961        C962   1.407       .  A
C962        C963   1.406       .  A
C962        C971   1.486       .  S
C963        H966   1.084       .  S
C967       C1510   1.438       .  S
C967        C968   1.389   1_556  A
C967        C972   1.404   1_556  A
C968        H973   1.087   1_554  S
C968        C969   1.389       .  A
C969       C1458   1.437       .  S
C969        C970   1.403       .  A
C970        H974   1.084       .  S
C970        C971   1.415       .  A
C971        C972   1.415       .  A
C972        H975   1.084       .  S
C976       C1370   1.440       .  S
C976        C977   1.389       .  A
C976        C981   1.405       .  A
C977        H982   1.087       .  S
C977        C978   1.391       .  A
C978       C1474   1.438       .  S
C978        C979   1.404       .  A
C979        H983   1.084       .  S
C979        C980   1.414       .  A
C980        C981   1.415       .  A
C981        H984   1.084       .  S
C985        C986   1.408       .  A
C985        C990   1.406       .  A
C985       C1016   1.488       .  S
C986        H991   1.084       .  S
C986        C987   1.408       .  A
C987        C988   1.408       .  A
C987        C998   1.490       .  S
C988        H992   1.084       .  S
C988        C989   1.408       .  A
C989        C990   1.406       .  A
C989       C1005   1.488       .  S
C990        H993   1.084       .  S
C994       C1394   1.441       .  S
C994        C995   1.391       .  A
C994        C999   1.405       .  A
C995       H1000   1.087   1_655  S
C995        C996   1.391   1_655  A
C996       C1367   1.440       .  S
C996        C997   1.405   1_455  A
C997       H1001   1.084       .  S
C997        C998   1.415       .  A
C998        C999   1.415       .  A
C999       H1002   1.084       .  S
C1003      C1502   1.439       .  S
C1003      C1004   1.404       .  A
C1003      C1008   1.389       .  A
C1004      H1009   1.084       .  S
C1004      C1005   1.416       .  A
C1005      C1006   1.415       .  A
C1006      H1010   1.084       .  S
C1006      C1007   1.403       .  A
C1007      C1365   1.438       .  S
C1007      C1008   1.389       .  A
C1008      H1011   1.087       .  S
C1012      C1447   1.439       .  S
C1012      C1013   1.389       .  A
C1012      C1017   1.404       .  A
C1013      H1018   1.087       .  S
C1013      C1014   1.389       .  A
C1014      C1376   1.438       .  S
C1014      C1015   1.403       .  A
C1015      H1019   1.084       .  S
C1015      C1016   1.415       .  A
C1016      C1017   1.416       .  A
C1017      H1020   1.084       .  S
C1021      C1533   1.438       .  S
C1021      C1022   1.389   1_655  A
C1021      C1026   1.403   1_655  A
C1022      H1027   1.087   1_455  S
C1022      C1023   1.389       .  A
C1023      C1435   1.437       .  S
C1023      C1024   1.403       .  A
C1024      H1028   1.084       .  S
C1024      C1025   1.415       .  A
C1025      C1026   1.415       .  A
C1025      C1030   1.486       .  S
C1026      H1029   1.084       .  S
C1030      C1031   1.406       .  A
C1030      C1035   1.406       .  A
C1031      H1036   1.084       .  S
C1031      C1032   1.406       .  A
C1032      C1033   1.406       .  A
C1032      C1052   1.485       .  S
C1033      H1037   1.084       .  S
C1033      C1034   1.406       .  A
C1034      C1035   1.406       .  A
C1034      C1041   1.486       .  S
C1035      H1038   1.084       .  S
C1039      C1478   1.437       .  S
C1039      C1040   1.403       .  A
C1039      C1044   1.389       .  A
C1040      H1045   1.084       .  S
C1040      C1041   1.415       .  A
C1041      C1042   1.415       .  A
C1042      H1046   1.084       .  S
C1042      C1043   1.403   1_565  A
C1043      C1363   1.438       .  S
C1043      C1044   1.389   1_545  A
C1044      H1047   1.087   1_565  S
C1048      C1361   1.437       .  S
C1048      C1049   1.389       .  A
C1048      C1053   1.403       .  A
C1049      H1054   1.087       .  S
C1049      C1050   1.389       .  A
C1050      C1480   1.437       .  S
C1050      C1051   1.403       .  A
C1051      H1055   1.084       .  S
C1051      C1052   1.415       .  A
C1052      C1053   1.415       .  A
C1053      H1056   1.084       .  S
C1057      C1359   1.438       .  S
C1057      C1058   1.389   1_565  A
C1057      C1062   1.404   1_565  A
C1058      H1063   1.087   1_545  S
C1058      C1059   1.389       .  A
C1059      C1434   1.439       .  S
C1059      C1060   1.404       .  A
C1060      H1064   1.084       .  S
C1060      C1061   1.416       .  A
C1061      C1062   1.415       .  A
C1061      C1068   1.487       .  S
C1062      H1065   1.084       .  S
C1066      C1067   1.408       .  A
C1066      C1071   1.407       .  A
C1066      C1086   1.488       .  S
C1067      H1072   1.084       .  S
C1067      C1068   1.408       .  A
C1068      C1069   1.406       .  A
C1069      H1073   1.084       .  S
C1069      C1070   1.406       .  A
C1070      C1071   1.406       .  A
C1070      C1079   1.486       .  S
C1071      H1074   1.084       .  S
C1075      C1357   1.438       .  S
C1075      C1076   1.389   1_554  A
C1075      C1080   1.404   1_554  A
C1076      H1081   1.087   1_556  S
C1076      C1077   1.389       .  A
C1077      C1462   1.438       .  S
C1077      C1078   1.403       .  A
C1078      H1082   1.084       .  S
C1078      C1079   1.415       .  A
C1079      C1080   1.415       .  A
C1080      H1083   1.084       .  S
C1084      C1516   1.440       .  S
C1084      C1085   1.405       .  A
C1084      C1089   1.389       .  A
C1085      H1090   1.084       .  S
C1085      C1086   1.415       .  A
C1086      C1087   1.414       .  A
C1087      H1091   1.084       .  S
C1087      C1088   1.404       .  A
C1088      C1472   1.438       .  S
C1088      C1089   1.391       .  A
C1089      H1092   1.087       .  S
O1093     Mg1095   2.121       .  S
O1093     Mg1101   2.120       .  S
O1093      C1128   1.240       .  S
C1094      O1107   1.240       .  S
C1094      O1131   1.274       .  A
C1094      H1133   1.082       .  S
Mg1095     O1124   2.120       .  S
Mg1095     O1139   2.323       .  S
Mg1095     O1135   2.242       .  S
Mg1095     O1106   2.304   1_565  S
O1096     Mg1138   2.120       .  S
O1096     Mg1121   2.121   1_545  S
O1096      C1117   1.240       .  S
O1097      C1128   1.273       .  A
O1097     Mg1121   2.304   1_655  S
C1098      O1100   1.270   1_455  A
C1098      O1112   1.274       .  A
C1098      C1384   1.435       .  S
O1099      C1127   1.274       .  A
O1099     Mg1101   2.305       .  S
O1100     Mg1132   2.242       .  S
Mg1101     O1107   2.121   1_655  S
Mg1101     O1115   2.242       .  S
Mg1101     O1103   2.324       .  S
C1102      O1140   1.270       .  A
C1102      O1108   1.273       .  A
C1102      C1356   1.435       .  S
O1103      C1110   1.274       .  A
H1104      C1117   1.082       .  S
C1105      O1119   1.240       .  S
C1105      O1120   1.273       .  A
C1105      H1130   1.082       .  S
O1106      C1129   1.274       .  A
O1107     Mg1121   2.121       .  S
O1108     Mg1138   2.323       .  S
C1109      O1122   1.270   1_565  A
C1109      O1114   1.273       .  A
C1109      C1426   1.435       .  S
C1110      O1137   1.270   1_655  A
C1110      C1353   1.435       .  S
Mg1111     O1118   2.121   1_455  S
Mg1111     O1119   2.120       .  S
Mg1111     O1112   2.324       .  S
Mg1111     O1113   2.305       .  S
Mg1111     O1140   2.242       .  S
O1113      C1117   1.274       .  A
O1114     Mg1121   2.323       .  S
O1115      C1134   1.270       .  A
O1116      C1136   1.273       .  A
O1116     Mg1132   2.323       .  S
O1118     Mg1132   2.120       .  S
O1118      C1129   1.240       .  S
O1119     Mg1138   2.121       .  S
O1120     Mg1132   2.304   1_455  S
Mg1121     O1137   2.242       .  S
O1122     Mg1138   2.241       .  S
H1123      C1128   1.082       .  S
O1124     Mg1132   2.121   1_565  S
O1124      C1127   1.240       .  S
H1125      C1127   1.082       .  S
H1126      C1129   1.082       .  S
O1131     Mg1138   2.304   1_565  S
C1134      O1139   1.273       .  A
C1134      C1366   1.435       .  S
O1135      C1136   1.270   1_565  A
C1136      C1431   1.435       .  S
C1141      C1395   1.440       .  S
C1141      C1142   1.391       .  A
C1141      C1146   1.405       .  A
C1142      H1147   1.087   1_455  S
C1142      C1143   1.391   1_455  A
C1143      C1524   1.440       .  S
C1143      C1144   1.405   1_655  A
C1144      H1148   1.084       .  S
C1144      C1145   1.415       .  A
C1145      C1146   1.415       .  A
C1145      C1150   1.490       .  S
C1146      H1149   1.084       .  S
C1150      C1151   1.408       .  A
C1150      C1155   1.408       .  A
C1151      H1156   1.084       .  S
C1151      C1152   1.408       .  A
C1152      C1153   1.406       .  A
C1152      C1172   1.488       .  S
C1153      H1157   1.084       .  S
C1153      C1154   1.406       .  A
C1154      C1155   1.408       .  A
C1154      C1161   1.488       .  S
C1155      H1158   1.084       .  S
C1159      C1355   1.438       .  S
C1159      C1160   1.404       .  A
C1159      C1164   1.389       .  A
C1160      H1165   1.084       .  S
C1160      C1161   1.415       .  A
C1161      C1162   1.416       .  A
C1162      H1166   1.084       .  S
C1162      C1163   1.404       .  A
C1163      C1352   1.439       .  S
C1163      C1164   1.389       .  A
C1164      H1167   1.087       .  S
C1168      C1349   1.438       .  S
C1168      C1169   1.389       .  A
C1168      C1173   1.404       .  A
C1169      H1174   1.087       .  S
C1169      C1170   1.389       .  A
C1170      C1454   1.439       .  S
C1170      C1171   1.404       .  A
C1171      H1175   1.084       .  S
C1171      C1172   1.416       .  A
C1172      C1173   1.415       .  A
C1173      H1176   1.084       .  S
O1177     Mg1179   2.121       .  S
O1177     Mg1185   2.121       .  S
O1177      C1212   1.240       .  S
C1178      O1191   1.240       .  S
C1178      O1215   1.274       .  A
C1178      H1217   1.082       .  S
Mg1179     O1208   2.121       .  S
Mg1179     O1223   2.325       .  S
Mg1179     O1219   2.243       .  S
Mg1179     O1190   2.305       .  S
O1180     Mg1222   2.121       .  S
O1180     Mg1205   2.121       .  S
O1180      C1201   1.240       .  S
O1181      C1212   1.274       .  A
O1181     Mg1205   2.304       .  S
C1182      O1184   1.270       .  A
C1182      O1196   1.273       .  A
C1182      C1364   1.435       .  S
O1183      C1211   1.273       .  A
O1183     Mg1185   2.303       .  S
O1184     Mg1216   2.242       .  S
Mg1185     O1191   2.122       .  S
Mg1185     O1199   2.242       .  S
Mg1185     O1187   2.323       .  S
C1186      O1224   1.270       .  A
C1186      O1192   1.274       .  A
C1186      C1351   1.436       .  S
O1187      C1194   1.273       .  A
H1188      C1201   1.082       .  S
C1189      O1203   1.240       .  S
C1189      O1204   1.274       .  A
C1189      H1214   1.082       .  S
O1190      C1213   1.274       .  A
O1191     Mg1205   2.121       .  S
O1192     Mg1222   2.327       .  S
C1193      O1206   1.270       .  A
C1193      O1198   1.273       .  A
C1193      C1348   1.435       .  S
C1194      O1221   1.270       .  A
C1194      C1400   1.435       .  S
Mg1195     O1202   2.122       .  S
Mg1195     O1203   2.120       .  S
Mg1195     O1196   2.322       .  S
Mg1195     O1197   2.304       .  S
Mg1195     O1224   2.243       .  S
O1197      C1201   1.273       .  A
O1198     Mg1205   2.323       .  S
O1199      C1218   1.270       .  A
O1200      C1220   1.274       .  A
O1200     Mg1216   2.324       .  S
O1202     Mg1216   2.120       .  S
O1202      C1213   1.240       .  S
O1203     Mg1222   2.121       .  S
O1204     Mg1216   2.305       .  S
Mg1205     O1221   2.241       .  S
O1206     Mg1222   2.243       .  S
H1207      C1212   1.082       .  S
O1208     Mg1216   2.121       .  S
O1208      C1211   1.240       .  S
H1209      C1211   1.082       .  S
H1210      C1213   1.082       .  S
O1215     Mg1222   2.305       .  S
C1218      O1223   1.274       .  A
C1218      C1358   1.435       .  S
O1219      C1220   1.270       .  A
C1220      C1427   1.435       .  S
C1225      C1226   1.407       .  A
C1225      C1230   1.408       .  A
C1225      C1238   1.488       .  S
C1226      H1231   1.084       .  S
C1226      C1227   1.406       .  A
C1227      C1228   1.406       .  A
C1227      C1256   1.486       .  S
C1228      H1232   1.084       .  S
C1228      C1229   1.406       .  A
C1229      C1230   1.408       .  A
C1229      C1247   1.487       .  S
C1230      H1233   1.084       .  S
C1234      C1438   1.438       .  S
C1234      C1235   1.390       .  A
C1234      C1239   1.404       .  A
C1235      H1240   1.087   1_554  S
C1235      C1236   1.389   1_554  A
C1236      C1522   1.439       .  S
C1236      C1237   1.404   1_556  A
C1237      H1241   1.084       .  S
C1237      C1238   1.415       .  A
C1238      C1239   1.414       .  A
C1239      H1242   1.084       .  S
C1243      C1485   1.438       .  S
C1243      C1244   1.389       .  A
C1243      C1248   1.404       .  A
C1244      H1249   1.087   1_655  S
C1244      C1245   1.389   1_655  A
C1245      C1347   1.438       .  S
C1245      C1246   1.404   1_455  A
C1246      H1250   1.084       .  S
C1246      C1247   1.415       .  A
C1247      C1248   1.416       .  A
C1248      H1251   1.084       .  S
C1252      C1460   1.437       .  S
C1252      C1253   1.389       .  A
C1252      C1257   1.403       .  A
C1253      H1258   1.087       .  S
C1253      C1254   1.389       .  A
C1254      C1526   1.438       .  S
C1254      C1255   1.404       .  A
C1255      H1259   1.084       .  S
C1255      C1256   1.415       .  A
C1256      C1257   1.415       .  A
C1257      H1260   1.084       .  S
C1261      C1262   1.407       .  A
C1261      C1266   1.409       .  A
C1261      C1283   1.490       .  S
C1262      H1267   1.084       .  S
C1262      C1263   1.406       .  A
C1263      C1264   1.406       .  A
C1263      C1274   1.487       .  S
C1264      H1268   1.084       .  S
C1264      C1265   1.407       .  A
C1265      C1266   1.409       .  A
C1265      C1292   1.490       .  S
C1266      H1269   1.084       .  S
C1270      C1346   1.438       .  S
C1270      C1271   1.389   1_455  A
C1270      C1275   1.404   1_455  A
C1271      H1276   1.087   1_655  S
C1271      C1272   1.389       .  A
C1272      C1354   1.438       .  S
C1272      C1273   1.404       .  A
C1273      H1277   1.084       .  S
C1273      C1274   1.415       .  A
C1274      C1275   1.415       .  A
C1275      H1278   1.084       .  S
C1279      C1514   1.441       .  S
C1279      C1280   1.389   1_545  A
C1279      C1284   1.405   1_545  A
C1280      H1285   1.087   1_565  S
C1280      C1281   1.391       .  A
C1281      C1412   1.438       .  S
C1281      C1282   1.404       .  A
C1282      H1286   1.084       .  S
C1282      C1283   1.415       .  A
C1283      C1284   1.416       .  A
C1284      H1287   1.084       .  S
C1288      C1391   1.441       .  S
C1288      C1289   1.389       .  A
C1288      C1293   1.405       .  A
C1289      H1294   1.087   1_556  S
C1289      C1290   1.391   1_556  A
C1290      C1527   1.438       .  S
C1290      C1291   1.404   1_554  A
C1291      H1295   1.084       .  S
C1291      C1292   1.415       .  A
C1292      C1293   1.416       .  A
C1293      H1296   1.084       .  S
O1297     Mg1299   2.121       .  S
O1297     Mg1305   2.120       .  S
O1297      C1332   1.240       .  S
C1298      O1311   1.240       .  S
C1298      O1335   1.273       .  A
C1298      H1337   1.082       .  S
Mg1299     O1328   2.120       .  S
Mg1299     O1343   2.322       .  S
Mg1299     O1339   2.242       .  S
Mg1299     O1310   2.304       .  S
O1300     Mg1342   2.120       .  S
O1300     Mg1325   2.121       .  S
O1300      C1321   1.240       .  S
O1301      C1332   1.273       .  A
O1301     Mg1325   2.304       .  S
C1302      O1304   1.270       .  A
C1302      O1316   1.274       .  A
C1302      C1360   1.435       .  S
O1303      C1331   1.274       .  A
O1303     Mg1305   2.304       .  S
O1304     Mg1336   2.242       .  S
Mg1305     O1311   2.121       .  S
Mg1305     O1319   2.242       .  S
Mg1305     O1307   2.324       .  S
C1306      O1344   1.270       .  A
C1306      O1312   1.273       .  A
C1306      C1404   1.435       .  S
O1307      C1314   1.274       .  A
H1308      C1321   1.082       .  S
C1309      O1323   1.240       .  S
C1309      O1324   1.274       .  A
C1309      H1334   1.082       .  S
O1310      C1333   1.273       .  A
O1311     Mg1325   2.120       .  S
O1312     Mg1342   2.322       .  S
C1313      O1326   1.270       .  A
C1313      O1318   1.274       .  A
C1313      C1466   1.435       .  S
C1314      O1341   1.270       .  A
C1314      C1350   1.435       .  S
Mg1315     O1322   2.121       .  S
Mg1315     O1323   2.120       .  S
Mg1315     O1316   2.324       .  S
Mg1315     O1317   2.305       .  S
Mg1315     O1344   2.242       .  S
O1317      C1321   1.274       .  A
O1318     Mg1325   2.324       .  S
O1319      C1338   1.270       .  A
O1320      C1340   1.274       .  A
O1320     Mg1336   2.324       .  S
O1322     Mg1336   2.120       .  S
O1322      C1333   1.240       .  S
O1323     Mg1342   2.121       .  S
O1324     Mg1336   2.305       .  S
Mg1325     O1341   2.242       .  S
O1326     Mg1342   2.242       .  S
H1327      C1332   1.082       .  S
O1328     Mg1336   2.121       .  S
O1328      C1331   1.240       .  S
H1329      C1331   1.082       .  S
H1330      C1333   1.082       .  S
O1335     Mg1342   2.304       .  S
C1338      O1343   1.273       .  A
C1338      C1362   1.435       .  S
O1339      C1340   1.270       .  A
C1340      C1345   1.435       .  S
C1345      C1346   1.206       .  T
C1347      C1348   1.206       .  T
C1349      C1350   1.206       .  T
C1351      C1352   1.207       .  T
C1353      C1354   1.206       .  T
C1355      C1356   1.206       .  T
C1357      C1358   1.206       .  T
C1359      C1360   1.206       .  T
C1361      C1362   1.206       .  T
C1363      C1364   1.206       .  T
C1365      C1366   1.206       .  T
C1367      C1368   1.207       .  T
C1369      C1370   1.207       .  T
C1371      C1372   1.207       .  T
C1373      C1374   1.206       .  T
C1375      C1376   1.206       .  T
C1377      C1378   1.206       .  T
C1379      C1380   1.208       .  T
C1381      C1382   1.206       .  T
C1383      C1384   1.206       .  T
C1385      C1386   1.206       .  T
C1387      C1388   1.206       .  T
C1389      C1390   1.206       .  T
C1391      C1392   1.208       .  T
C1393      C1394   1.207       .  T
C1395      C1396   1.207       .  T
C1397      C1398   1.208       .  T
C1399      C1400   1.206       .  T
C1401      C1402   1.207       .  T
C1403      C1404   1.206       .  T
C1405      C1406   1.207       .  T
C1407      C1408   1.206       .  T
C1409      C1410   1.206       .  T
C1411      C1412   1.206       .  T
C1413      C1414   1.206       .  T
C1415      C1416   1.206       .  T
C1417      C1418   1.206       .  T
C1419      C1420   1.207       .  T
C1421      C1422   1.206       .  T
C1423      C1424   1.206       .  T
C1425      C1426   1.206       .  T
C1427      C1428   1.206       .  T
C1429      C1430   1.207       .  T
C1431      C1432   1.206       .  T
C1433      C1434   1.206       .  T
C1435      C1436   1.206       .  T
C1437      C1438   1.206       .  T
C1439      C1440   1.206       .  T
C1441      C1442   1.206       .  T
C1443      C1444   1.206       .  T
C1445      C1446   1.206       .  T
C1447      C1448   1.207       .  T
C1449      C1450   1.206       .  T
C1451      C1452   1.206       .  T
C1453      C1454   1.207       .  T
C1455      C1456   1.206       .  T
C1457      C1458   1.206       .  T
C1459      C1460   1.206       .  T
C1461      C1462   1.206       .  T
C1463      C1464   1.206       .  T
C1465      C1466   1.206       .  T
C1467      C1468   1.206       .  T
C1469      C1470   1.206       .  T
C1471      C1472   1.206       .  T
C1473      C1474   1.206       .  T
C1475      C1476   1.206       .  T
C1477      C1478   1.205       .  T
C1479      C1480   1.206       .  T
C1481      C1482   1.206       .  T
C1483      C1484   1.206       .  T
C1485      C1486   1.206       .  T
C1487      C1488   1.206       .  T
C1489      C1490   1.206       .  T
C1491      C1492   1.207       .  T
C1493      C1494   1.206       .  T
C1495      C1496   1.206       .  T
C1497      C1498   1.206       .  T
C1499      C1500   1.206       .  T
C1501      C1502   1.207       .  T
C1503      C1504   1.206       .  T
C1505      C1506   1.206       .  T
C1507      C1508   1.206       .  T
C1509      C1510   1.206       .  T
C1511      C1512   1.206       .  T
C1513      C1514   1.208       .  T
C1515      C1516   1.207       .  T
C1517      C1518   1.207       .  T
C1519      C1520   1.207       .  T
C1521      C1522   1.207       .  T
C1523      C1524   1.207       .  T
C1525      C1526   1.206       .  T
C1527      C1528   1.206       .  T
C1529      C1530   1.206       .  T
C1531      C1532   1.206       .  T
C1533      C1534   1.206       .  T
C1535      C1536   1.206       .  T
