geometry optimzed in LAMMPS
_audit_creation_date              2020-11-30 
_audit_creation_method            'lammps2cif' 
_symmetry_space_group_name_H-M    'P1' 
_symmetry_Int_Tables_number       1 
_symmetry_cell_setting            triclinic 
loop_ 
_symmetry_equiv_pos_as_xyz 
  x,y,z 
_cell_length_a                    33.76518414 
_cell_length_b                    33.76898088058016 
_cell_length_c                    38.45639766798049 
_cell_angle_alpha                 90.40849701251761 
_cell_angle_beta                  90.04805632885851 
_cell_angle_gamma                 90.47337587080408 
loop_ 
_atom_site_label 
_atom_site_type_symbol 
_atom_site_fract_x 
_atom_site_fract_y 
_atom_site_fract_z 
_atom_site_charge 
N1          N  0.49089334  0.44304684  0.77517819    -0.36700
N2          N  0.55486813  0.50182719  0.77764683    -0.57200
N3          N  0.49260045  0.56163983  0.77667518    -0.36600
N4          N  0.42877032  0.50311667  0.77875576    -0.57200
C5          C  0.52297015  0.41954003  0.77825143     0.26900
C6          C  0.45831158  0.42000793  0.77938701     0.26900
C7          C  0.52518096  0.58437842  0.78213118     0.26900
C8          C  0.46062488  0.58502494  0.78079339     0.26900
C9          C  0.57533771  0.46985078  0.76641992     0.35600
C10         C  0.57620838  0.53402146  0.76789945     0.35600
C11         C  0.40631303  0.47106611  0.77026945     0.35600
C12         C  0.40762256  0.53525032  0.76926588     0.35600
C13         C  0.51070580  0.38125694  0.78553956    -0.21900
C14         C  0.46989853  0.38150554  0.78615810    -0.21900
C15         C  0.51368484  0.62249002  0.79104197    -0.21900
C16         C  0.47287945  0.62295033  0.78993032    -0.21900
C17         C  0.61058240  0.48174723  0.75116639    -0.23000
C18         C  0.61100214  0.52226292  0.75183207    -0.23000
C19         C  0.36976729  0.48303188  0.75785994    -0.23000
C20         C  0.37076154  0.52358972  0.75687542    -0.23000
C21         C  0.56182203  0.43009769  0.76784473    -0.18300
C22         C  0.41931063  0.43119464  0.77044711    -0.18300
C23         C  0.42189649  0.57482598  0.76980724    -0.18300
C24         C  0.56398707  0.57387820  0.77181704    -0.18300
H25         H  0.52921750  0.35540846  0.78799283     0.14600
H26         H  0.45094395  0.35579893  0.78929153     0.14600
H27         H  0.53281419  0.64794304  0.79534276     0.14600
H28         H  0.45438940  0.64872167  0.79334977     0.14600
H29         H  0.63303472  0.46327842  0.73946081     0.12900
H30         H  0.63384562  0.54073148  0.74053943     0.12900
H31         H  0.34557441  0.46442572  0.74879231     0.12900
H32         H  0.34740527  0.54216669  0.74703235     0.12900
H33         H  0.49102503  0.47083167  0.76395246     0.26100
H34         H  0.49235108  0.53459411  0.76376958     0.26100
N35         N  0.49323465  0.55872174  0.93235464    -0.36700
N36         N  0.55287748  0.49647989  0.92779992    -0.57200
N37         N  0.49582099  0.43295193  0.93028659    -0.36600
N38         N  0.43559316  0.49516720  0.93378719    -0.57200
C39         C  0.52623518  0.57653277  0.94515504     0.26900
C40         C  0.46183786  0.57626784  0.94776390     0.26900
C41         C  0.52906119  0.41449380  0.94118723     0.26900
C42         C  0.46472841  0.41350160  0.94449701     0.26900
C43         C  0.57493344  0.52922435  0.92188817     0.35600
C44         C  0.57656275  0.46517601  0.92157607     0.35600
C45         C  0.41119326  0.52664871  0.93131601     0.35600
C46         C  0.41251667  0.46238570  0.93089238     0.35600
C47         C  0.51567674  0.60603119  0.96862065    -0.21900
C48         C  0.47499354  0.60596520  0.97015507    -0.21900
C49         C  0.51883321  0.38220510  0.96144944    -0.21900
C50         C  0.47824999  0.38146482  0.96340600    -0.21900
C51         C  0.61216328  0.51868750  0.90997961    -0.23000
C52         C  0.61331509  0.47800494  0.91014728    -0.23000
C53         C  0.37274079  0.51378659  0.92507043    -0.23000
C54         C  0.37353396  0.47307631  0.92513605    -0.23000
C55         C  0.56552870  0.56656663  0.93609487    -0.18300
C56         C  0.42173995  0.56526776  0.94272203    -0.18300
C57         C  0.42452644  0.42431288  0.94150062    -0.18300
C58         C  0.56832676  0.42691425  0.93418532    -0.18300
H59         H  0.53519143  0.62499045  0.98378312     0.14600
H60         H  0.45725352  0.62472433  0.98680926     0.14600
H61         H  0.53848163  0.36185964  0.97435890     0.14600
H62         H  0.46081081  0.36036464  0.97805548     0.14600
H63         H  0.63698629  0.53829460  0.90491122     0.12900
H64         H  0.63906705  0.46000130  0.90505615     0.12900
H65         H  0.34642105  0.53178871  0.92362336     0.12900
H66         H  0.34797076  0.45357468  0.92373880     0.12900
H67         H  0.49217704  0.53717090  0.91278781     0.26100
H68         H  0.49421765  0.45659126  0.91306751     0.26100
N69         N  0.49351250  0.12879364  0.40340589    -0.36700
N70         N  0.43315623  0.13086853  0.35089832    -0.57200
N71         N  0.49329077  0.13134491  0.29587303    -0.36600
N72         N  0.55381228  0.13224785  0.34823285    -0.57200
C73         C  0.46135621  0.13754108  0.42297591     0.26900
C74         C  0.52577835  0.14069386  0.42162120     0.26900
C75         C  0.46087825  0.14267613  0.27803117     0.26900
C76         C  0.52518119  0.14089565  0.27624659     0.26900
C77         C  0.40991068  0.12342692  0.37870229     0.35600
C78         C  0.40959037  0.12757006  0.32270344     0.35600
C79         C  0.57731164  0.12804882  0.37639764     0.35600
C80         C  0.57716109  0.12722276  0.31995357     0.35600
C81         C  0.47334026  0.15447586  0.45423529    -0.21900
C82         C  0.51397193  0.15654038  0.45336746    -0.21900
C83         C  0.47220896  0.15884018  0.24646298    -0.21900
C84         C  0.51278683  0.15766481  0.24530805    -0.21900
C85         C  0.37153821  0.11491105  0.36811819    -0.23000
C86         C  0.37124726  0.11791544  0.33257180    -0.23000
C87         C  0.61571260  0.11992195  0.36597760    -0.23000
C88         C  0.61559552  0.11932137  0.33019588    -0.23000
C89         C  0.42148358  0.13052231  0.41339082    -0.18300
C90         C  0.56567642  0.13631507  0.41103845    -0.18300
C91         C  0.56517207  0.13464658  0.28536403    -0.18300
C92         C  0.42122290  0.13714849  0.28860449    -0.18300
H93         H  0.45477437  0.16477425  0.47532246     0.14600
H94         H  0.53265542  0.16857796  0.47380759     0.14600
H95         H  0.45320849  0.17027610  0.22626485     0.14600
H96         H  0.53102880  0.16825651  0.22413905     0.14600
H97         H  0.34609725  0.10897000  0.38443265     0.12900
H98         H  0.34555267  0.11443786  0.31594862     0.12900
H99         H  0.64137502  0.11612319  0.38246329     0.12900
H100        H  0.64109116  0.11492933  0.31361176     0.12900
H101        H  0.49369230  0.11260267  0.38029531     0.26100
H102        H  0.49334877  0.11483265  0.31858498     0.26100
N103        N  0.87280492  0.49706746  0.29625058    -0.36700
N104        N  0.86710227  0.55581375  0.35052092    -0.57200
N105        N  0.86573775  0.49370341  0.40358109    -0.36600
N106        N  0.86832882  0.43512833  0.34949156    -0.57200
C107        C  0.86369887  0.52935203  0.27720396     0.26900
C108        C  0.86275463  0.46491374  0.27693402     0.26900
C109        C  0.85364805  0.52544780  0.42216136     0.26900
C110        C  0.85401783  0.46104682  0.42117156     0.26900
C111        C  0.87373957  0.58017406  0.32325202     0.35600
C112        C  0.87089247  0.57820778  0.37963888     0.35600
C113        C  0.87521482  0.41277622  0.32102340     0.35600
C114        C  0.87263284  0.41104727  0.37710500     0.35600
C115        C  0.84884599  0.51747738  0.24511615    -0.21900
C116        C  0.84809513  0.47686857  0.24499807    -0.21900
C117        C  0.83449848  0.51286080  0.45210788    -0.21900
C118        C  0.83456104  0.47219143  0.45138049    -0.21900
C119        C  0.88197716  0.61815234  0.33510973    -0.23000
C120        C  0.88035572  0.61688073  0.37085909    -0.23000
C121        C  0.88430848  0.37437800  0.33052413    -0.23000
C122        C  0.88310103  0.37339217  0.36620559    -0.23000
C123        C  0.86829714  0.56928472  0.28792344    -0.18300
C124        C  0.86738417  0.42499148  0.28681831    -0.18300
C125        C  0.86177781  0.42150031  0.41129501    -0.18300
C126        C  0.86076592  0.56547190  0.41349400    -0.18300
H127        H  0.83899618  0.53607555  0.22405665     0.14600
H128        H  0.83772930  0.45829167  0.22376358     0.14600
H129        H  0.82166972  0.53106219  0.47238364     0.14600
H130        H  0.82171823  0.45304544  0.47089180     0.14600
H131        H  0.88773258  0.64416116  0.31957234     0.12900
H132        H  0.88438984  0.64181642  0.38838154     0.12900
H133        H  0.88983835  0.34941800  0.31344350     0.12300
H134        H  0.88754617  0.34755609  0.38219323     0.12900
H135        H  0.88766281  0.49681730  0.31994753     0.26100
H136        H  0.88431676  0.49453021  0.38202166     0.26100
N137        N  0.50036578  0.85985524  0.30053690    -0.36700
N138        N  0.44291320  0.86224962  0.35605568    -0.57200
N139        N  0.50584613  0.86236335  0.40811439    -0.36600
N140        N  0.56344506  0.85770850  0.35248444    -0.57200
C141        C  0.46679121  0.84936813  0.28342243     0.26900
C142        C  0.53103765  0.84588255  0.28159521     0.26900
C143        C  0.47415785  0.85226702  0.42780330     0.26900
C144        C  0.53863905  0.85167929  0.42590769     0.26900
C145        C  0.41809684  0.86723267  0.32884404     0.35600
C146        C  0.42092530  0.86704104  0.38506859     0.35600
C147        C  0.58535183  0.86121642  0.32323968     0.35600
C148        C  0.58832966  0.86404699  0.37957623     0.35600
C149        C  0.47625770  0.82895759  0.25317895    -0.21900
C150        C  0.51681633  0.82673082  0.25203707    -0.21900
C151        C  0.48698168  0.83566394  0.45867522    -0.21900
C152        C  0.52762609  0.83524166  0.45747359    -0.21900
C153        C  0.38037209  0.87589806  0.34058562    -0.23000
C154        C  0.38214254  0.87570267  0.37624612    -0.23000
C155        C  0.62427599  0.87034735  0.33170681    -0.23000
C156        C  0.62613396  0.87236280  0.36744160    -0.23000
C157        C  0.42781339  0.85831400  0.29401513    -0.18300
C158        C  0.57158611  0.85126683  0.28953913    -0.18300
C159        C  0.57827362  0.85712594  0.41477652    -0.18300
C160        C  0.43395323  0.85832734  0.41904299    -0.18300
H161        H  0.45603388  0.81649762  0.23410002     0.14600
H162        H  0.53387786  0.81234536  0.23183278     0.14600
H163        H  0.46894025  0.82463960  0.47980658     0.14600
H164        H  0.54680208  0.82364128  0.47746683     0.14600
H165        H  0.35396282  0.88002167  0.32510475     0.12900
H166        H  0.35735135  0.87979673  0.39369588     0.12900
H167        H  0.64896385  0.87381312  0.31402273     0.12900
H168        H  0.65259217  0.87758412  0.38276606     0.12900
H169        H  0.50239221  0.87855701  0.32212803     0.26100
H170        H  0.50524646  0.87859358  0.38522396     0.26100
N171        N  0.13300014  0.49851379  0.40729997    -0.36700
N172        N  0.13305351  0.43834805  0.35381712    -0.57200
N173        N  0.13033476  0.49936849  0.29957507    -0.36600
N174        N  0.13298692  0.55944589  0.35314871    -0.57200
C175        C  0.14435819  0.46672942  0.42604716     0.26900
C176        C  0.14368187  0.53115719  0.42569680     0.26900
C177        C  0.13982683  0.46703002  0.28052441     0.26900
C178        C  0.13989906  0.53151841  0.28028826     0.26900
C179        C  0.13029372  0.41450457  0.38188558     0.35600
C180        C  0.12856705  0.41486846  0.32546363     0.35600
C181        C  0.12801035  0.58251466  0.38163214     0.35600
C182        C  0.12754536  0.58300296  0.32525665     0.35600
C183        C  0.16181224  0.47938827  0.45687951    -0.21900
C184        C  0.16136298  0.52000481  0.45667554    -0.21900
C185        C  0.15443503  0.47876041  0.24841498    -0.21900
C186        C  0.15469678  0.51935701  0.24835694    -0.21900
C187        C  0.12338957  0.37575172  0.37132641    -0.23000
C188        C  0.12246610  0.37595388  0.33556943    -0.23000
C189        C  0.11892954  0.62080265  0.37181679    -0.23000
C190        C  0.11856928  0.62109278  0.33606894    -0.23000
C191        C  0.13903057  0.42654767  0.41640389    -0.18300
C192        C  0.13665352  0.57078274  0.41599483    -0.18300
C193        C  0.13519735  0.57157813  0.29046313    -0.18300
C194        C  0.13509458  0.42710669  0.29080949    -0.18300
H195        H  0.17399714  0.46129069  0.47732794     0.14600
H196        H  0.17299001  0.53912764  0.47702231     0.14600
H197        H  0.16435795  0.46007218  0.22722115     0.14600
H198        H  0.16505166  0.53772151  0.22722767     0.14600
H199        H  0.12097804  0.34984146  0.38762106     0.12900
H200        H  0.11920420  0.35018795  0.31887744     0.12900
H201        H  0.11437802  0.64616311  0.38866731     0.12900
H202        H  0.11365268  0.64667653  0.31987792     0.12900
H203        H  0.11583011  0.49813096  0.38482933     0.26100
H204        H  0.11534252  0.49924716  0.32316516     0.26100
Zr205      Zr  0.22452172  0.23018613  0.16143016     2.17500
O206        O  0.23346451  0.23213380  0.22456939    -0.51400
O207        O  0.16981784  0.18796669  0.17988544    -0.74600
O208        O  0.19429841  0.28707849  0.18938961    -0.81400
O209        O  0.31286043  0.15906966  0.15213820    -0.83100
O210        O  0.16345804  0.32488777  0.14908701    -0.78700
O211        O  0.27769645  0.19550532  0.19082215    -0.90400
O212        O  0.14099127  0.15743104  0.13346098    -0.76300
O213        O  0.17079067  0.23760203  0.12198606    -0.85800
O214        O  0.22527242  0.17369733  0.12402429    -0.85500
O215        O  0.23817159  0.29177182  0.13238219    -0.72300
O216        O  0.28824398  0.23235389  0.13376040    -0.84400
Zr217      Zr  0.24851789  0.24473519  0.02466353     2.26400
Zr218      Zr  0.18414546  0.29835015  0.09240674     2.06300
Zr219      Zr  0.28787312  0.17642179  0.09539488     2.10000
Zr220      Zr  0.17328753  0.18243734  0.08298606     1.78800
O221        O  0.35919867  0.16624444  0.09288817    -0.93200
O222        O  0.10314203  0.19688780  0.07552326    -0.41000
O223        O  0.23569607  0.18338965  0.05399027    -0.77600
O224        O  0.18475437  0.24275034  0.05281029    -0.96300
O225        O  0.24662808  0.30052082  0.06292934    -0.89600
O226        O  0.30169121  0.23636472  0.06473362    -0.92500
C227        C  0.14460108  0.16402206  0.16598056     1.01300
C228        C  0.30555568  0.17134521  0.18301241     1.14200
C229        C  0.17347041  0.31693519  0.18057031     1.05000
O230        O  0.11217735  0.30266287  0.09259367    -0.94600
O231        O  0.16431051  0.31949245  0.03475269    -0.90400
O232        O  0.20387636  0.28927001  0.99470964    -0.83500
C233        C  0.17552143  0.31232987  0.00343699     1.11600
O234        O  0.32856897  0.31726673  0.15661579    -0.96600
Zr235      Zr  0.29993048  0.29232315  0.10240645     1.88900
O236        O  0.29868691  0.29082427  0.00259548    -0.73300
O237        O  0.19571096  0.36952972  0.09001059    -0.52500
O238        O  0.29351521  0.36392920  0.10826881    -0.97200
O239        O  0.37087385  0.27951930  0.10392334    -0.54400
O240        O  0.32586376  0.32076230  0.04988996    -0.73800
C241        C  0.32215603  0.31626646  0.01697439     0.98600
O242        O  0.22908612  0.22185814  0.96679640    -0.62600
O243        O  0.27709684  0.10496963  0.09755074    -0.57400
O244        O  0.28663111  0.19292136  0.99563833    -0.94100
O245        O  0.30768681  0.15329881  0.03902511    -0.92500
O246        O  0.17951863  0.11081211  0.07923867    -0.92900
O247        O  0.14680717  0.15439204  0.02920962    -0.91600
C248        C  0.30523168  0.16250824  0.00686461     1.17400
H249        H  0.22220720  0.14948642  0.13692949     0.33400
H250        H  0.16383911  0.24458261  0.03592777     0.44200
H251        H  0.32666732  0.23464743  0.05263907     0.37700
H252        H  0.23994891  0.31410616  0.14806551     0.34200
H253        H  0.09709666  0.21655346  0.09394644     0.26000
H254        H  0.16893729  0.38118444  0.08908722     0.31900
H255        H  0.27808600  0.37210803  0.08766571     0.37800
H256        H  0.20353238  0.10640672  0.06503351     0.32300
H257        H  0.30358044  0.09349659  0.09336927     0.31200
H258        H  0.36379404  0.14064101  0.10456616     0.32900
H259        H  0.37837228  0.27292366  0.07968905     0.31800
H260        H  0.16803424  0.15869351  0.01186611     0.35800
H261        H  0.19976910  0.22092780  0.96670619     0.28600
H262        H  0.20652868  0.23295044  0.23472988     0.32800
H263        H  0.34998548  0.33577804  0.14963623     0.35600
H264        H  0.27140661  0.09901623  0.12221960     0.28300
H265        H  0.23639795  0.24354275  0.95074725     0.41100
H266        H  0.10661290  0.33097584  0.08840778     0.31200
H267        H  0.10131457  0.21197243  0.05361663     0.38800
H268        H  0.37324297  0.25423556  0.11657990     0.30700
H269        H  0.20596805  0.37691148  0.11332184     0.30700
H270        H  0.24551765  0.25822196  0.23019461     0.31000
Zr271      Zr  0.25235532  0.74918916  0.02623215     2.17500
O272        O  0.23632061  0.76648831  0.96621743    -0.51400
O273        O  0.29820913  0.69825704  0.00534729    -0.74600
O274        O  0.29645972  0.79711328  0.99925688    -0.81400
O275        O  0.15644304  0.69015040  0.03314973    -0.83100
O276        O  0.31797967  0.84132389  0.04004450    -0.78700
O277        O  0.20194631  0.71299470  0.99426405    -0.90400
O278        O  0.31966849  0.66356647  0.05188233    -0.76300
O279        O  0.30603358  0.75285877  0.06629054    -0.85800
O280        O  0.24335006  0.69358747  0.06327564    -0.85500
O281        O  0.24473836  0.81198799  0.05551152    -0.72300
O282        O  0.18850726  0.75697272  0.05318556    -0.84400
Zr283      Zr  0.22913372  0.76794179  0.16136124     2.26400
Zr284      Zr  0.29863338  0.81508652  0.09636056     2.06300
Zr285      Zr  0.18109395  0.70211902  0.09191931     2.10000
Zr286      Zr  0.29668787  0.69724319  0.10337513     1.78800
O287        O  0.10906985  0.70114145  0.09560124    -0.93200
O288        O  0.36890683  0.70030069  0.10400743    -0.41000
O289        O  0.23478326  0.70478152  0.13277482    -0.77600
O290        O  0.29244204  0.75880075  0.13370124    -0.96300
O291        O  0.23583227  0.82369599  0.12425047    -0.89600
O292        O  0.17453562  0.76381244  0.12217226    -0.92500
C293        C  0.31754623  0.66966673  0.01912916     1.01300
C294        C  0.16947622  0.69527728  0.00207574     1.14200
C295        C  0.31478284  0.82884775  0.00853896     1.05000
O296        O  0.37062939  0.81633996  0.09216520    -0.94600
O297        O  0.32377618  0.83149790  0.15449255    -0.90400
O298        O  0.28335649  0.79999948  0.19273249    -0.83500
C299        C  0.31402498  0.82111481  0.18549729     1.11600
O300        O  0.16193865  0.84690288  0.02861333    -0.96600
Zr301      Zr  0.18231599  0.81833676  0.08380062     1.88900
O302        O  0.17864007  0.81450104  0.18043367    -0.73300
O303        O  0.29836666  0.88674339  0.10416916    -0.52500
O304        O  0.19181332  0.88983159  0.08031527    -0.97200
O305        O  0.11142621  0.80655277  0.07586745    -0.54400
O306        O  0.15115464  0.84538578  0.13442867    -0.73800
C307        C  0.15399236  0.83875704  0.16696150     0.98600
O308        O  0.23766731  0.76632013  0.22433091    -0.62600
O309        O  0.18214984  0.63046781  0.08354545    -0.57400
O310        O  0.19572854  0.71205209  0.18847180    -0.94100
O311        O  0.16223494  0.67521407  0.14854943    -0.92500
O312        O  0.27767338  0.62887634  0.11490772    -0.92900
O313        O  0.32661203  0.67543421  0.15755849    -0.91600
C314        C  0.17285126  0.68300027  0.18000944     1.17400
H315        H  0.24307256  0.66895347  0.05027293     0.33400
H316        H  0.31412516  0.75753703  0.15005690     0.44200
H317        H  0.14955903  0.76429786  0.13436016     0.37700
H318        H  0.24574919  0.83346840  0.03917775     0.34200
H319        H  0.37753867  0.67236699  0.10247454     0.26000
H320        H  0.32600855  0.89513851  0.09943441     0.31900
H321        H  0.20778884  0.89700031  0.10105303     0.37800
H322        H  0.30291188  0.61417102  0.11500851     0.32300
H323        H  0.18738400  0.61936760  0.10684046     0.31200
H324        H  0.10179758  0.67268188  0.09580526     0.32900
H325        H  0.10083507  0.80072299  0.09929644     0.31800
H326        H  0.30571198  0.67938065  0.17526339     0.35800
H327        H  0.21086996  0.76926702  0.23425230     0.28600
H328        H  0.26010970  0.76038883  0.95215533     0.32800
H329        H  0.13631436  0.85997231  0.03323706     0.35600
H330        H  0.15432682  0.62295143  0.07845918     0.28300
H331        H  0.24542714  0.73894295  0.23006781     0.41100
H332        H  0.37801942  0.78885544  0.08609066     0.31200
H333        H  0.37637924  0.71175022  0.08129475     0.38800
H334        H  0.10966346  0.78095796  0.06324886     0.30700
H335        H  0.28302213  0.89680923  0.08420262     0.30700
H336        H  0.23373504  0.79568114  0.96558325     0.31000
Zr337      Zr  0.22811122  0.77143958  0.54476480     2.17500
O338        O  0.22900430  0.77422349  0.48127602    -0.51400
O339        O  0.18058648  0.82180139  0.52735421    -0.74600
O340        O  0.19542100  0.71517557  0.51608278    -0.81400
O341        O  0.32408654  0.83192850  0.55534746    -0.83100
O342        O  0.16411892  0.67604272  0.55535904    -0.78700
O343        O  0.28595799  0.79932139  0.51567519    -0.90400
O344        O  0.14773785  0.84824951  0.57315721    -0.76300
O345        O  0.17322145  0.76453746  0.58287978    -0.85800
O346        O  0.23176501  0.82688888  0.58344693    -0.85500
O347        O  0.23885789  0.70879775  0.57324730    -0.72300
O348        O  0.29113653  0.76615110  0.57338002    -0.84400
Zr349      Zr  0.24906217  0.75212976  0.68087550     2.26400
Zr350      Zr  0.18340307  0.70286430  0.61180083     2.06300
Zr351      Zr  0.29414208  0.82136472  0.61231448     2.10000
Zr352      Zr  0.17793337  0.81856195  0.62301187     1.78800
O353        O  0.36551072  0.82948860  0.61876910    -0.93200
O354        O  0.10819507  0.80103899  0.62912309    -0.41000
O355        O  0.24017482  0.81428250  0.65200459    -0.77600
O356        O  0.18583752  0.75731881  0.65233064    -0.96300
O357        O  0.24543192  0.69711270  0.64192998    -0.89600
O358        O  0.30422841  0.76042099  0.64286278    -0.92500
C359        C  0.15474848  0.84519083  0.54063351     1.01300
C360        C  0.31647915  0.82025961  0.52412502     1.14200
C361        C  0.17432526  0.68478366  0.52419382     1.05000
O362        O  0.11141258  0.70449217  0.60821127    -0.94600
O363        O  0.15928007  0.68191726  0.66798431    -0.90400
O364        O  0.20050725  0.70910728  0.70866227    -0.83500
C365        C  0.17059461  0.68784254  0.69944189     1.11600
O366        O  0.32457748  0.67843226  0.54916509    -0.96600
Zr367      Zr  0.30044898  0.70550395  0.60403192     1.88900
O368        O  0.29887899  0.70610487  0.70283893    -0.73300
O369        O  0.18701451  0.63088525  0.61338901    -0.52500
O370        O  0.29954342  0.63348394  0.59943155    -0.97200
O371        O  0.37003226  0.72339706  0.59701177    -0.54400
O372        O  0.32892460  0.67791917  0.65636756    -0.73800
C373        C  0.32408751  0.68220376  0.68926672     0.98600
O374        O  0.23555583  0.76997309  0.74133595    -0.62600
O375        O  0.28844968  0.89258583  0.60370048    -0.57400
O376        O  0.28169165  0.80733212  0.71021106    -0.94100
O377        O  0.30809931  0.84850451  0.66956695    -0.92500
O378        O  0.18211675  0.88997190  0.63178400    -0.92900
O379        O  0.15445638  0.84182864  0.67936981    -0.91600
C380        C  0.30083662  0.83857168  0.70109279     1.17400
H381        H  0.23041670  0.85174799  0.57118522     0.33400
H382        H  0.16435594  0.75610407  0.66880043     0.44200
H383        H  0.32888822  0.76122332  0.65576770     0.37700
H384        H  0.24007079  0.68678597  0.55720896     0.34200
H385        H  0.09435399  0.82674478  0.63005334     0.26000
H386        H  0.20439876  0.62509021  0.63343673     0.31900
H387        H  0.27138926  0.62584401  0.60225367     0.37800
H388        H  0.20309165  0.89387712  0.64952551     0.32300
H389        H  0.26448230  0.90028323  0.61679001     0.31200
H390        H  0.37116641  0.85669041  0.61056373     0.32900
H391        H  0.37932651  0.73140328  0.62045358     0.31800
H392        H  0.17556399  0.83429835  0.69589676     0.35800
H393        H  0.20663999  0.77443139  0.74269557     0.28600
H394        H  0.20091470  0.77365432  0.47381575     0.32800
H395        H  0.34985574  0.66524288  0.55477094     0.35600
H396        H  0.31066949  0.90443599  0.61710634     0.28300
H397        H  0.24032364  0.74579943  0.75510181     0.41100
H398        H  0.10340374  0.67712159  0.60180997     0.31200
H399        H  0.10053133  0.78937362  0.60638154     0.38800
H400        H  0.36976776  0.74829266  0.58355957     0.30700
H401        H  0.16033436  0.62204374  0.62085298     0.30700
H402        H  0.23993199  0.74873334  0.47307390     0.31000
Zr403      Zr  0.25079553  0.24577452  0.68163678     2.17500
O404        O  0.22941062  0.22987800  0.74060776    -0.51400
O405        O  0.29851649  0.29391731  0.70495694    -0.74600
O406        O  0.29073315  0.19552478  0.70975553    -0.81400
O407        O  0.15937271  0.31017908  0.67111483    -0.83100
O408        O  0.31544128  0.15397209  0.66850424    -0.78700
O409        O  0.20044728  0.28354332  0.71157390    -0.90400
O410        O  0.32799494  0.32167726  0.65828690    -0.76300
O411        O  0.30534580  0.24022537  0.64267553    -0.85800
O412        O  0.24633266  0.30148326  0.64406619    -0.85500
O413        O  0.24134142  0.18337337  0.65212105    -0.72300
O414        O  0.18787703  0.24044338  0.65270064    -0.84400
Zr415      Zr  0.22981612  0.22818505  0.54496235     2.26400
Zr416      Zr  0.29538169  0.17884807  0.61190383     2.06300
Zr417      Zr  0.18471204  0.29515338  0.61368325     2.10000
Zr418      Zr  0.30031218  0.29559598  0.60506905     1.78800
O419        O  0.11297142  0.29387689  0.60803120    -0.93200
O420        O  0.37161337  0.28673540  0.60006424    -0.41000
O421        O  0.23900771  0.29056385  0.57417604    -0.77600
O422        O  0.29307192  0.23483554  0.57368044    -0.96300
O423        O  0.23303669  0.17240869  0.58251464    -0.89600
O424        O  0.17525019  0.23364660  0.58380373    -0.92500
C425        C  0.32329149  0.31820662  0.69117139     1.01300
C426        C  0.17007653  0.30357709  0.70255125     1.14200
C427        C  0.30998730  0.16466546  0.70029189     1.05000
O428        O  0.36701037  0.17143397  0.61418884    -0.94600
O429        O  0.32155077  0.16065298  0.55501456    -0.90400
O430        O  0.28178762  0.19071670  0.51579774    -0.83500
C431        C  0.31156863  0.16912699  0.52371007     1.11600
O432        O  0.15291824  0.15749413  0.67849271    -0.96600
Zr433      Zr  0.17941725  0.17897405  0.62259406     1.88900
O434        O  0.17696971  0.18357023  0.52569134    -0.73300
O435        O  0.28337158  0.10787263  0.60772778    -0.52500
O436        O  0.18730294  0.10809495  0.63185509    -0.97200
O437        O  0.10811033  0.18921868  0.62713290    -0.54400
O438        O  0.15192552  0.14903035  0.57124439    -0.73800
C439        C  0.15394831  0.15730099  0.53896991     0.98600
O440        O  0.23310544  0.23767291  0.48202059    -0.62600
O441        O  0.18725719  0.36706952  0.61948226    -0.57400
O442        O  0.20082832  0.28585021  0.51710960    -0.94100
O443        O  0.16839472  0.32287910  0.55724395    -0.92500
O444        O  0.28924053  0.36669357  0.60201911    -0.92900
O445        O  0.32742900  0.32242169  0.55137333    -0.91600
C446        C  0.17898510  0.31531943  0.52584138     1.17400
H447        H  0.24738818  0.32615954  0.65700187     0.33400
H448        H  0.31485599  0.23506745  0.55745490     0.44200
H449        H  0.15041694  0.23389104  0.57119985     0.37700
H450        H  0.24138358  0.16168355  0.66830832     0.34200
H451        H  0.38313589  0.31322037  0.60512775     0.26000
H452        H  0.27563739  0.10301628  0.58322203     0.31900
H453        H  0.19796563  0.09771453  0.60967618     0.37800
H454        H  0.31489879  0.37894529  0.60872391     0.32300
H455        H  0.20603027  0.37588214  0.60129440     0.31200
H456        H  0.10418011  0.31891444  0.61898935     0.32900
H457        H  0.09598951  0.16327589  0.62103337     0.31800
H458        H  0.30397075  0.33018284  0.53761208     0.35800
H459        H  0.26047695  0.24658391  0.47682692     0.28600
H460        H  0.25225897  0.23626182  0.75585515     0.32800
H461        H  0.13386163  0.13580409  0.67325537     0.35600
H462        H  0.16106402  0.37612157  0.61125605     0.28300
H463        H  0.23057362  0.21100620  0.47131003     0.41100
H464        H  0.37770214  0.19785413  0.60808297     0.31200
H465        H  0.37885588  0.27063805  0.62048655     0.38800
H466        H  0.10105324  0.20658908  0.60751137     0.30700
H467        H  0.30999998  0.09605875  0.60981603     0.30700
H468        H  0.22642720  0.20069105  0.74148831     0.31000
Zr469      Zr  0.76405161  0.75957553  0.15571969     2.17500
O470        O  0.75731259  0.76454185  0.21880039    -0.51400
O471        O  0.81322145  0.80804228  0.17493535    -0.74600
O472        O  0.79658932  0.70495137  0.18549334    -0.81400
O473        O  0.67233630  0.82527851  0.14519427    -0.83100
O474        O  0.82983443  0.66726527  0.14633411    -0.78700
O475        O  0.70615518  0.78778762  0.18365510    -0.90400
O476        O  0.84964958  0.83182337  0.13010340    -0.76300
O477        O  0.81938474  0.75216235  0.11822371    -0.85800
O478        O  0.76217344  0.81497202  0.11767084    -0.85500
O479        O  0.75281263  0.69662347  0.12730541    -0.72300
O480        O  0.70160221  0.75532779  0.12617156    -0.84400
Zr481      Zr  0.74544999  0.74167113  0.01932343     2.26400
Zr482      Zr  0.80811846  0.69022575  0.08892764     2.06300
Zr483      Zr  0.69997169  0.81023714  0.08778678     2.10000
Zr484      Zr  0.81679736  0.80660112  0.07910829     1.78800
O485        O  0.62846500  0.80341578  0.08103744    -0.93200
O486        O  0.88605139  0.79083812  0.06841820    -0.41000
O487        O  0.75500437  0.80374439  0.04900237    -0.77600
O488        O  0.80787941  0.74533498  0.04949984    -0.96300
O489        O  0.74684375  0.68617533  0.05743819    -0.89600
O490        O  0.68987466  0.74915063  0.05680968    -0.92500
C491        C  0.84124764  0.82944534  0.16238585     1.01300
C492        C  0.67826964  0.81183120  0.17599247     1.14200
C493        C  0.81946802  0.67597980  0.17767740     1.05000
O494        O  0.88000126  0.68551331  0.08938773    -0.94600
O495        O  0.83085054  0.66953088  0.03182631    -0.90400
O496        O  0.79492262  0.70097748  0.99040402    -0.83500
C497        C  0.82287717  0.67796067  0.00004621     1.11600
O498        O  0.66481013  0.67507214  0.15140958    -0.96600
Zr499      Zr  0.69198837  0.69434343  0.09533586     1.88900
O500        O  0.69780542  0.69396419  0.99603907    -0.73300
O501        O  0.79703834  0.61874522  0.08819530    -0.52500
O502        O  0.69631921  0.62315219  0.10375224    -0.97200
O503        O  0.62054666  0.70412758  0.09747585    -0.54400
O504        O  0.66923703  0.66314019  0.04206658    -0.73800
C505        C  0.67473566  0.66784297  0.00937883     0.98600
O506        O  0.75974765  0.76247515  0.95989165    -0.62600
O507        O  0.69772319  0.88201807  0.09470314    -0.57400
O508        O  0.70895742  0.79412133  0.99050644    -0.94100
O509        O  0.68844255  0.83903253  0.03089562    -0.92500
O510        O  0.81336269  0.87850577  0.07644202    -0.92900
O511        O  0.83978681  0.83044731  0.02293519    -0.91600
C512        C  0.69245425  0.82684055  0.99939200     1.17400
H513        H  0.76407091  0.83965716  0.13034678     0.33400
H514        H  0.82982246  0.74408319  0.03354088     0.44200
H515        H  0.66567298  0.74947662  0.04337641     0.37700
H516        H  0.75147564  0.67493600  0.14345558     0.34200
H517        H  0.90028805  0.81652497  0.07015738     0.26000
H518        H  0.82306078  0.60736621  0.08204867     0.31900
H519        H  0.66889218  0.61321818  0.10039439     0.37800
H520        H  0.79008823  0.88378899  0.06155002     0.32300
H521        H  0.71094901  0.88766463  0.11719922     0.31200
H522        H  0.62175376  0.81865707  0.05998551     0.32900
H523        H  0.60905228  0.67777550  0.09184838     0.31800
H524        H  0.81532702  0.83505096  0.00937992     0.35800
H525        H  0.78883059  0.76616706  0.95856267     0.28600
H526        H  0.78442265  0.76231314  0.22839903     0.32800
H527        H  0.65715712  0.70029325  0.16275571     0.35600
H528        H  0.71639717  0.89239664  0.07710332     0.28300
H529        H  0.75376566  0.73922204  0.94489297     0.41100
H530        H  0.88532707  0.65673825  0.09005087     0.31200
H531        H  0.89454159  0.77601672  0.08921480     0.38800
H532        H  0.61414147  0.72054296  0.07706045     0.30700
H533        H  0.79287400  0.61124868  0.11277613     0.30700
H534        H  0.74345962  0.74008512  0.22611249     0.31000
Zr535      Zr  0.74704250  0.74070579  0.68300940     2.17500
O536        O  0.76695595  0.75326682  0.74314453    -0.51400
O537        O  0.69678505  0.69440480  0.70492634    -0.74600
O538        O  0.70841793  0.79194834  0.71175312    -0.81400
O539        O  0.84022250  0.67839963  0.67196553    -0.83100
O540        O  0.68105561  0.83165469  0.67079292    -0.78700
O541        O  0.79962646  0.70573421  0.71266752    -0.90400
O542        O  0.66070499  0.67266101  0.65883667    -0.76300
O543        O  0.69193513  0.74651961  0.64476664    -0.85800
O544        O  0.75085779  0.68459451  0.64533295    -0.85500
O545        O  0.75641503  0.80276424  0.65360213    -0.72300
O546        O  0.80943396  0.74579043  0.65336480    -0.84400
Zr547      Zr  0.76546687  0.75675958  0.54693599     2.26400
Zr548      Zr  0.70141993  0.80756958  0.61414975     2.06300
Zr549      Zr  0.81240863  0.69019233  0.61456986     2.10000
Zr550      Zr  0.69610523  0.69071536  0.60691745     1.78800
O551        O  0.88423590  0.68670838  0.61009583    -0.93200
O552        O  0.62704941  0.70138526  0.59191382    -0.41000
O553        O  0.75722087  0.69476460  0.57594214    -0.77600
O554        O  0.70265714  0.75128755  0.57572154    -0.96300
O555        O  0.76327371  0.81309441  0.58420736    -0.89600
O556        O  0.82124975  0.75129674  0.58431895    -0.92500
C557        C  0.66726388  0.67536750  0.69154343     1.01300
C558        C  0.83049954  0.68633538  0.70356654     1.14200
C559        C  0.68750422  0.82152258  0.70234141     1.05000
O560        O  0.62928016  0.80891392  0.61535460    -0.94600
O561        O  0.67838677  0.82906099  0.55713641    -0.90400
O562        O  0.71627564  0.79651539  0.51783296    -0.83500
C563        C  0.68783628  0.81980434  0.52575883     1.11600
O564        O  0.84370626  0.83542112  0.67676062    -0.96600
Zr565      Zr  0.81774856  0.80661391  0.62300264     1.88900
O566        O  0.81373313  0.80414514  0.52603461    -0.73300
O567        O  0.70709459  0.87954100  0.61392049    -0.52500
O568        O  0.80724754  0.87776065  0.62738084    -0.97200
O569        O  0.88840202  0.79367643  0.62938676    -0.54400
O570        O  0.84584995  0.83372903  0.57096055    -0.73800
C571        C  0.83968807  0.82817865  0.53850721     0.98600
O572        O  0.75574098  0.73894296  0.48580782    -0.62600
O573        O  0.80535060  0.61874015  0.62108873    -0.57400
O574        O  0.79830297  0.70278570  0.51729424    -0.94100
O575        O  0.82926781  0.66407484  0.55683885    -0.92500
O576        O  0.70443134  0.61952562  0.61281911    -0.92900
O577        O  0.67524632  0.65693060  0.55375583    -0.91600
C578        C  0.81982874  0.67314305  0.52544621     1.17400
H579        H  0.74957440  0.66030199  0.65842910     0.33400
H580        H  0.68095606  0.75188890  0.55938343     0.44200
H581        H  0.84563968  0.75107993  0.57119506     0.37700
H582        H  0.75672113  0.82451186  0.66990384     0.34200
H583        H  0.61413803  0.67519788  0.59487472     0.26000
H584        H  0.68136222  0.88907942  0.62289139     0.31900
H585        H  0.83222706  0.89004424  0.61915734     0.37800
H586        H  0.67788369  0.60798418  0.60821554     0.32300
H587        H  0.78746182  0.61042256  0.60192665     0.31200
H588        H  0.89042913  0.65838858  0.61347017     0.32900
H589        H  0.90191547  0.81403397  0.61518028     0.31800
H590        H  0.67828371  0.67709455  0.53535936     0.35800
H591        H  0.72761848  0.73071396  0.48366132     0.28600
H592        H  0.74260995  0.75075744  0.75732484     0.32800
H593        H  0.86533758  0.85360520  0.66964067     0.35600
H594        H  0.83148494  0.60794494  0.61450147     0.28300
H595        H  0.75811150  0.76378969  0.47241490     0.41100
H596        H  0.62076140  0.79387573  0.59441962     0.31200
H597        H  0.61672107  0.71792547  0.61116068     0.38800
H598        H  0.89304018  0.76850585  0.61675669     0.30700
H599        H  0.72624554  0.88587440  0.63266786     0.30700
H600        H  0.77437313  0.78168933  0.74429946     0.31000
Zr601      Zr  0.76170210  0.23396895  0.15748617     2.17500
O602        O  0.76400173  0.24166736  0.22067657    -0.51400
O603        O  0.80944111  0.18585479  0.17747380    -0.74600
O604        O  0.70590514  0.20112806  0.18573923    -0.81400
O605        O  0.83396902  0.32083881  0.14775660    -0.83100
O606        O  0.66675536  0.17086886  0.14535179    -0.78700
O607        O  0.79302802  0.29024557  0.18599980    -0.90400
O608        O  0.83346076  0.14997788  0.13226324    -0.76300
O609        O  0.75442991  0.17904446  0.11885594    -0.85800
O610        O  0.81791046  0.23572109  0.12025614    -0.85500
O611        O  0.69955431  0.24552042  0.12858061    -0.72300
O612        O  0.75930813  0.29693708  0.12912363    -0.84400
Zr613      Zr  0.74468588  0.25417035  0.02107661     2.26400
Zr614      Zr  0.69318474  0.19070034  0.08908397     2.06300
Zr615      Zr  0.81450906  0.29719215  0.09028651     2.10000
Zr616      Zr  0.81006716  0.18217470  0.08060396     1.78800
O617        O  0.81741916  0.36911611  0.08796649    -0.93200
O618        O  0.80129621  0.11162297  0.06841132    -0.41000
O619        O  0.80700509  0.24335841  0.04982727    -0.77600
O620        O  0.74920368  0.19145517  0.05053708    -0.96300
O621        O  0.68915740  0.25265282  0.05931806    -0.89600
O622        O  0.75377185  0.30908835  0.05972743    -0.92500
C623        C  0.83106393  0.15840548  0.16464271     1.01300
C624        C  0.82012586  0.31561885  0.17846865     1.14200
C625        C  0.67554311  0.18019037  0.17689237     1.05000
O626        O  0.68469736  0.11940071  0.09369242    -0.94600
O627        O  0.67627220  0.16375091  0.03211074    -0.90400
O628        O  0.70756992  0.20165598  0.99162385    -0.83500
C629        C  0.68574935  0.17214281  0.00062081     1.11600
O630        O  0.66800895  0.32600396  0.15331677    -0.96600
Zr631      Zr  0.69874937  0.30710571  0.09834814     1.88900
O632        O  0.70033107  0.30611318  0.00023582    -0.73300
O633        O  0.62245483  0.20395395  0.08576432    -0.52500
O634        O  0.62680487  0.31253520  0.09725841    -0.97200
O635        O  0.71900831  0.37501758  0.11107410    -0.54400
O636        O  0.67464427  0.33874817  0.04652311    -0.73800
C637        C  0.67849443  0.33316005  0.01375171     0.98600
O638        O  0.74582261  0.24281568  0.95825347    -0.62600
O639        O  0.88641851  0.29259609  0.09350853    -0.57400
O640        O  0.80234381  0.28375070  0.99269083    -0.94100
O641        O  0.84297364  0.31044293  0.03387417    -0.92500
O642        O  0.88123003  0.19446934  0.08128261    -0.92900
O643        O  0.84122938  0.15828137  0.02741515    -0.91600
C644        C  0.83371308  0.30272579  0.00219168     1.17400
H645        H  0.84222132  0.23402427  0.13322263     0.33400
H646        H  0.74886571  0.16936546  0.03444817     0.44200
H647        H  0.75536344  0.33380625  0.04720783     0.37700
H648        H  0.67749342  0.24676001  0.14443260     0.34200
H649        H  0.78618929  0.10126565  0.08846719     0.26000
H650        H  0.60953126  0.17848744  0.09175199     0.31900
H651        H  0.61769373  0.29120426  0.08130022     0.37800
H652        H  0.88553040  0.21553788  0.06388214     0.32300
H653        H  0.89596170  0.32039687  0.09377031     0.31200
H654        H  0.84605702  0.37557584  0.08714473     0.32900
H655        H  0.69384510  0.38966839  0.11325686     0.31800
H656        H  0.82374700  0.16750524  0.00849745     0.35800
H657        H  0.74642970  0.26940728  0.94755000     0.28600
H658        H  0.76063251  0.21479711  0.23043380     0.32800
H659        H  0.68699319  0.31749252  0.17137519     0.35600
H660        H  0.89242180  0.28263487  0.11704868     0.28300
H661        H  0.77192664  0.23111292  0.95287827     0.41100
H662        H  0.71201027  0.10901613  0.09296771     0.31200
H663        H  0.78250719  0.10996299  0.04867490     0.38800
H664        H  0.73090591  0.38474342  0.08919785     0.30700
H665        H  0.61708271  0.22140308  0.10600488     0.30700
H666        H  0.73969467  0.25600471  0.22724358     0.31000
Zr667      Zr  0.74009034  0.25659013  0.67965185     2.17500
O668        O  0.74912967  0.23630943  0.73963747    -0.51400
O669        O  0.69133023  0.30408580  0.70143317    -0.74600
O670        O  0.79359352  0.29442051  0.70882432    -0.81400
O671        O  0.67573969  0.16328864  0.66850049    -0.83100
O672        O  0.83341101  0.31828407  0.66631584    -0.78700
O673        O  0.70486812  0.20337200  0.70899674    -0.90400
O674        O  0.66133865  0.33163215  0.65494261    -0.76300
O675        O  0.74740509  0.31080644  0.64090553    -0.85800
O676        O  0.68458469  0.25188163  0.64112470    -0.85500
O677        O  0.80211326  0.24590920  0.65029506    -0.72300
O678        O  0.74390778  0.19352469  0.65073833    -0.84400
Zr679      Zr  0.75799574  0.23374089  0.54338572     2.26400
Zr680      Zr  0.80798456  0.29965036  0.60990255     2.06300
Zr681      Zr  0.68939769  0.18950706  0.61116672     2.10000
Zr682      Zr  0.69220884  0.30621333  0.60262811     1.78800
O683        O  0.68646221  0.11756121  0.60602374    -0.93200
O684        O  0.70889051  0.37669130  0.60355997    -0.41000
O685        O  0.69579482  0.24398924  0.57223581    -0.77600
O686        O  0.75247894  0.29728860  0.57124066    -0.96300
O687        O  0.81333930  0.23678058  0.58148754    -0.89600
O688        O  0.75076391  0.17907955  0.58168303    -0.92500
C689        C  0.66569490  0.32731185  0.68783801     1.01300
C690        C  0.68406030  0.17297803  0.70005074     1.14200
C691        C  0.82475648  0.31319312  0.69846823     1.05000
O692        O  0.80656213  0.37168351  0.60996025    -0.94600
O693        O  0.83014866  0.32245469  0.55298478    -0.90400
O694        O  0.79822334  0.28325694  0.51375299    -0.83500
C695        C  0.82138382  0.31233190  0.52161511     1.11600
O696        O  0.83065591  0.15944614  0.67648918    -0.96600
Zr697      Zr  0.80491482  0.18350786  0.62130505     1.88900
O698        O  0.80652214  0.18545202  0.52393297    -0.73300
O699        O  0.88005897  0.29714682  0.60926110    -0.52500
O700        O  0.87682037  0.18761512  0.62644966    -0.97200
O701        O  0.78658600  0.11430849  0.63002909    -0.54400
O702        O  0.83315974  0.15414944  0.57040713    -0.73800
C703        C  0.82957362  0.15991823  0.53780678     0.98600
O704        O  0.73952562  0.24300078  0.48258351    -0.62600
O705        O  0.61795975  0.19356240  0.61876406    -0.57400
O706        O  0.70490019  0.19826710  0.51407508    -0.94100
O707        O  0.66308493  0.17138397  0.55386228    -0.92500
O708        O  0.62141831  0.30049308  0.59127219    -0.92900
O709        O  0.67157635  0.33814052  0.54901429    -0.91600
C710        C  0.67382726  0.17841513  0.52238755     1.17400
H711        H  0.65981731  0.25302651  0.65372979     0.33400
H712        H  0.75361852  0.31859633  0.55461288     0.44200
H713        H  0.75031828  0.15424337  0.56896063     0.37700
H714        H  0.82381687  0.24551178  0.66645936     0.34200
H715        H  0.68328217  0.39027403  0.60690268     0.26000
H716        H  0.88702885  0.28516400  0.58652893     0.31900
H717        H  0.88503445  0.20764428  0.60915790     0.37800
H718        H  0.61070401  0.28554646  0.61126982     0.32300
H719        H  0.60900390  0.21111269  0.59987135     0.31200
H720        H  0.65795266  0.11081760  0.60787381     0.32900
H721        H  0.77600173  0.10509087  0.60736649     0.31800
H722        H  0.67754146  0.31859153  0.53046467     0.35800
H723        H  0.73343580  0.27150042  0.48019963     0.28600
H724        H  0.74076026  0.25943228  0.75365418     0.32800
H725        H  0.84578743  0.13527686  0.67071150     0.35600
H726        H  0.60778871  0.16699150  0.61209706     0.28300
H727        H  0.76390341  0.23877959  0.46880220     0.41100
H728        H  0.83247506  0.37995301  0.61978031     0.31200
H729        H  0.72324635  0.38128134  0.62570157     0.38800
H730        H  0.76311148  0.11518379  0.64542613     0.30700
H731        H  0.88866240  0.32516108  0.60748787     0.30700
H732        H  0.77803437  0.23395397  0.74327587     0.31000
O733        O  0.90942760  0.07386517  0.29486597    -0.75300
O734        O  0.94304349  0.03954954  0.25309771    -0.54200
C735        C  0.91776929  0.06548694  0.26307169     0.78400
O736        O  0.06084326  0.08561980  0.41072719    -0.59900
O737        O  0.03144169  0.04625744  0.45147356    -0.53000
C738        C  0.05382034  0.07523591  0.44221189     0.70400
O739        O  0.05727905  0.08720166  0.29436814    -0.74500
O740        O  0.02873484  0.04741693  0.25299628    -0.55100
C741        C  0.05011409  0.07715860  0.26273224     0.76400
O742        O  0.91212372  0.07510700  0.41089391    -0.59600
O743        O  0.94629212  0.04097595  0.45209787    -0.52800
C744        C  0.92152003  0.06753664  0.44248548     0.73000
Zr745      Zr  0.92705060  0.05197633  0.35278029     2.54700
O746        O  0.91444424  0.12267680  0.35137611    -0.80200
O747        O  0.85602354  0.03971040  0.35582802    -0.93600
Zr748      Zr  0.04334377  0.06397693  0.35232438     2.64700
O749        O  0.03513748  0.13554061  0.35398800    -0.98600
O750        O  0.11521329  0.07015725  0.35132231    -0.80600
O751        O  0.98483383  0.05885058  0.31862343    -0.84000
O752        O  0.98558653  0.05875941  0.38620867    -2.18700
O753        O  0.91974929  0.91565410  0.40959190    -0.67400
O754        O  0.95232751  0.95149907  0.45110054    -0.51900
C755        C  0.92825501  0.92385585  0.44137939     0.71400
O756        O  0.06773545  0.92511584  0.29238204    -0.60300
O757        O  0.03379457  0.95851520  0.25094283    -0.52300
C758        C  0.05868839  0.93219501  0.26058392     0.73200
O759        O  0.07833477  0.93155025  0.40850830    -0.71700
O760        O  0.04058804  0.96113375  0.45023618    -0.50400
C761        C  0.06940309  0.93890312  0.44039747     0.74600
O762        O  0.91754090  0.91625568  0.29381931    -0.67000
O763        O  0.95028112  0.95203689  0.25250916    -0.54200
C764        C  0.92546713  0.92526205  0.26218406     0.73000
Zr765      Zr  0.93769480  0.93616802  0.35180589     2.77500
O766        O  0.94708602  0.86479424  0.35339098    -0.97800
O767        O  0.86605559  0.92847884  0.35262685    -0.78600
Zr768      Zr  0.05414693  0.94796054  0.35087288     2.70100
O769        O  0.06476473  0.87683117  0.35274877    -0.79800
O770        O  0.12443400  0.96079387  0.34317289    -0.98900
Zr771      Zr  0.98974850  0.99969681  0.28485620     2.21500
Zr772      Zr  0.99137838  0.99949222  0.41911930     2.11100
O773        O  0.99650274  0.94058558  0.38512780    -2.47600
O774        O  0.99559156  0.94050792  0.31752376    -0.79600
O775        O  0.93139643  0.99384752  0.38663985    -0.71800
O776        O  0.04963402  0.00614901  0.31747807    -2.32800
O777        O  0.93047665  0.99407314  0.31817730    -2.29000
O778        O  0.05040784  0.00583913  0.38570364    -0.73600
H779        H  0.98426269  0.08189851  0.40101999     0.78400
H780        H  0.07224312  0.00833870  0.30241076     0.79500
H781        H  0.99893598  0.91760571  0.39968093     0.81700
H782        H  0.90730135  0.99216854  0.30347642     0.79300
H783        H  0.12456571  0.04885252  0.36676980     0.42400
H784        H  0.13280341  0.97360936  0.36521856     0.41300
H785        H  0.03799712  0.86535618  0.35622490     0.41000
H786        H  0.92003060  0.85350615  0.35114924     0.39000
H787        H  0.85597014  0.95590215  0.35232580     0.42100
H788        H  0.84462366  0.06608784  0.36075301     0.36900
H789        H  0.93944015  0.13440338  0.34259266     0.43000
H790        H  0.01341247  0.14015046  0.37077745     0.39400
H791        H  0.96018154  0.85820568  0.33109856     0.44300
H792        H  0.85226368  0.02491166  0.37773107     0.43000
H793        H  0.05919898  0.14591357  0.36574216     0.43200
H794        H  0.13657584  0.93421346  0.34358893     0.43500
O795        O  0.43617822  0.91518816  0.91592119    -0.75300
O796        O  0.38818178  0.95451747  0.89313156    -0.54200
C797        C  0.40003143  0.92564532  0.91218362     0.78400
O798        O  0.56899285  0.07932436  0.91422127    -0.59900
O799        O  0.61565602  0.04141599  0.88713801    -0.53000
C800        C  0.60483491  0.07050080  0.90669280     0.70400
O801        O  0.43853157  0.06970192  0.92697724    -0.74500
O802        O  0.38908400  0.04213018  0.89408471    -0.55100
C803        C  0.40196309  0.06420925  0.91901885     0.76400
O804        O  0.56648222  0.90965859  0.90917943    -0.59600
O805        O  0.61421098  0.94936997  0.88552338    -0.52800
C806        C  0.60266980  0.91956644  0.90385046     0.73000
Zr807      Zr  0.50138777  0.93537524  0.89768794     2.54700
O808        O  0.50530271  0.93047279  0.96070331    -0.80200
O809        O  0.49822281  0.86371902  0.89072832    -0.93600
Zr810      Zr  0.50369426  0.05123226  0.90685050     2.64700
O811        O  0.51251282  0.03752679  0.96838564    -0.98600
O812        O  0.49991176  0.12174309  0.92013822    -0.80600
O813        O  0.46358193  0.99366280  0.90475459    -0.84000
O814        O  0.54187986  0.99278376  0.90284843    -2.18700
O815        O  0.56090370  0.91590786  0.78512768    -0.67400
O816        O  0.61153755  0.95032073  0.81093211    -0.51900
C817        C  0.59778927  0.92204993  0.79164585     0.71400
O818        O  0.43398899  0.08219112  0.78984161    -0.60300
O819        O  0.38699065  0.04434713  0.81702696    -0.52300
C820        C  0.39791784  0.07225308  0.79642418     0.73200
O821        O  0.56685035  0.08288604  0.79059960    -0.71700
O822        O  0.61431634  0.04210363  0.81266131    -0.50400
C823        C  0.60287795  0.07190291  0.79465593     0.74600
O824        O  0.42905869  0.92514216  0.78332193    -0.67000
O825        O  0.38355974  0.95831242  0.81610567    -0.54200
C826        C  0.39347682  0.93298559  0.79276583     0.73000
Zr827      Zr  0.49682177  0.94555275  0.79549977     2.77500
O828        O  0.49936203  0.96384161  0.73440322    -0.97800
O829        O  0.48842305  0.87805475  0.77382598    -0.78600
Zr830      Zr  0.50037337  0.06100611  0.80503029     2.70100
O831        O  0.50170014  0.06775583  0.74200884    -0.79800
O832        O  0.50000002  0.13217350  0.81548333    -0.98900
Zr833      Zr  0.42363973  0.99926514  0.85396919     2.21500
Zr834      Zr  0.57797477  0.99643058  0.84957328     2.11100
O835        O  0.53812921  0.00238348  0.79822121    -2.47600
O836        O  0.45930724  0.00396595  0.80051613    -0.79600
O837        O  0.53746214  0.93845597  0.84531060    -0.71800
O838        O  0.46329543  0.05798150  0.85708777    -2.32800
O839        O  0.46060248  0.93957856  0.84794211    -2.29000
O840        O  0.54062137  0.05573056  0.85488692    -0.73600
H841        H  0.55948555  0.99097907  0.92258619     0.78400
H842        H  0.44715017  0.08139808  0.85915159     0.79500
H843        H  0.55457791  0.00363556  0.77765658     0.81700
H844        H  0.44345310  0.91653270  0.84713574     0.79300
H845        H  0.51198951  0.13498148  0.89980042     0.42400
H846        H  0.52269278  0.13709019  0.83130481     0.41300
H847        H  0.52344886  0.05036200  0.73414841     0.41000
H848        H  0.52528050  0.95399943  0.72616546     0.39000
H849        H  0.48003168  0.86263596  0.79438794     0.42100
H850        H  0.51700036  0.85810005  0.87161638     0.36900
H851        H  0.51642940  0.90389407  0.96493213     0.43000
H852        H  0.49879900  0.05949545  0.98042616     0.39400
H853        H  0.47966758  0.94614992  0.72299258     0.44300
H854        H  0.47188161  0.85813680  0.88040626     0.43000
H855        H  0.49558203  0.01399397  0.97266951     0.43200
H856        H  0.50828191  0.14390786  0.79309386     0.43500
O857        O  0.08324670  0.43421980  0.91770352    -0.75300
O858        O  0.04951039  0.38508224  0.88907318    -0.54200
C859        C  0.07661731  0.39772608  0.91024424     0.78400
O860        O  0.91698522  0.56287674  0.91148056    -0.59900
O861        O  0.95773988  0.61097164  0.88951640    -0.53000
C862        C  0.92754525  0.59909282  0.90710127     0.70400
O863        O  0.92057739  0.43109106  0.91713098    -0.74500
O864        O  0.95824742  0.38356365  0.89088585    -0.55100
C865        C  0.93006131  0.39486658  0.91102483     0.76400
O866        O  0.08551094  0.56494418  0.91503034    -0.59600
O867        O  0.04812099  0.61236808  0.88915511    -0.52800
C868        C  0.07688519  0.60115606  0.90865318     0.73000
Zr869      Zr  0.05991815  0.49905220  0.90280012     2.54700
O870        O  0.05264556  0.50255046  0.96572903    -0.80200
O871        O  0.13189917  0.50039715  0.90607600    -0.93600
Zr872      Zr  0.94431976  0.49748140  0.90300512     2.64700
O873        O  0.95673422  0.50338855  0.96521479    -0.98600
O874        O  0.87321428  0.49571479  0.91318448    -0.80600
O875        O  0.00219633  0.45841167  0.90443573    -0.84000
O876        O  0.00212797  0.53786800  0.90410822    -2.18700
O877        O  0.08753880  0.56216711  0.79056050    -0.67400
O878        O  0.04882196  0.61064781  0.81394456    -0.51900
C879        C  0.07841400  0.59856868  0.79570149     0.71400
O880        O  0.92488225  0.43171883  0.78309663    -0.60300
O881        O  0.95713080  0.38345610  0.81316519    -0.52300
C882        C  0.93236458  0.39546530  0.79006953     0.73200
O883        O  0.91986114  0.56426702  0.78899739    -0.71700
O884        O  0.95766731  0.61218582  0.81541416    -0.50400
C885        C  0.92885175  0.60059175  0.79588197     0.74600
O886        O  0.07998769  0.42995722  0.78576710    -0.67000
O887        O  0.04469862  0.38205581  0.81406935    -0.54200
C888        C  0.07166828  0.39364756  0.79278004     0.73000
Zr889      Zr  0.05943151  0.49701245  0.80000241     2.77500
O890        O  0.05008965  0.50030868  0.73725975    -0.97800
O891        O  0.13072208  0.49390163  0.79147565    -0.78600
Zr892      Zr  0.94402012  0.49784357  0.80048724     2.70100
O893        O  0.95001676  0.49860127  0.73736791    -0.79800
O894        O  0.87197702  0.49411710  0.79802911    -0.98900
Zr895      Zr  0.00182929  0.41989113  0.85209756     2.21500
Zr896      Zr  0.00284368  0.57527535  0.85165237     2.11100
O897        O  0.00226107  0.53720419  0.79896349    -2.47600
O898        O  0.00129782  0.45771972  0.79971291    -0.79600
O899        O  0.06112068  0.53627083  0.85120023    -0.71800
O900        O  0.94293182  0.45887370  0.85152277    -2.32800
O901        O  0.06067202  0.45964593  0.85162178    -2.29000
O902        O  0.94379700  0.53609337  0.85193024    -0.73600
H903        H  0.00218406  0.55511943  0.92435870     0.78400
H904        H  0.91944557  0.44227358  0.85124110     0.79500
H905        H  0.00249178  0.55425849  0.77885099     0.81700
H906        H  0.08412254  0.44345360  0.85147769     0.79300
H907        H  0.86178716  0.48658322  0.89077024     0.42400
H908        H  0.86294925  0.51182204  0.81700587     0.41300
H909        H  0.96344618  0.52396925  0.73194144     0.41000
H910        H  0.07603124  0.49261275  0.72743018     0.39000
H911        H  0.14078709  0.48087815  0.81266817     0.42100
H912        H  0.14071530  0.48091474  0.88841494     0.36900
H913        H  0.07113926  0.48248813  0.97477532     0.43000
H914        H  0.94538261  0.52929803  0.97189960     0.39400
H915        H  0.03229491  0.47771246  0.73162563     0.44300
H916        H  0.13848803  0.48834152  0.92872974     0.43000
H917        H  0.93879877  0.48358856  0.97587607     0.43200
H918        H  0.86464129  0.50794379  0.77636498     0.43500
C919        C  0.66899667  0.14660286  0.72770741    -0.00200
C920        C  0.66645045  0.10569515  0.72071407    -0.12100
C921        C  0.64831504  0.07989777  0.74423444     0.02000
C922        C  0.63227299  0.09497880  0.77526833    -0.00300
C923        C  0.63666342  0.13528905  0.78325942    -0.12000
C924        C  0.65497589  0.16122771  0.75995530     0.01900
H925        H  0.67743544  0.09401014  0.69624191     0.14900
H926        H  0.62338524  0.14694199  0.80674868     0.14900
C927        C  0.65505591  0.20297231  0.76845827     0.36600
C928        C  0.64351128  0.03865655  0.73482826     0.36500
N929        N  0.65453894  0.23632774  0.77557162    -0.43800
N930        N  0.63935066  0.00558258  0.72754530    -0.43800
C931        C  0.90200552  0.09183843  0.46907216    -0.00200
C932        C  0.88415091  0.07332692  0.49755475    -0.12100
C933        C  0.86038683  0.09496730  0.52043730     0.02000
C934        C  0.85431980  0.13579452  0.51470898    -0.00300
C935        C  0.87337003  0.15447323  0.48696312    -0.12000
C936        C  0.89762408  0.13307725  0.46453304     0.01900
H937        H  0.88735938  0.04167288  0.50105688     0.14900
H938        H  0.86989302  0.18607947  0.48320673     0.14900
C939        C  0.91910690  0.15469863  0.43821180     0.36600
C940        C  0.84066794  0.07401573  0.54815618     0.36500
N941        N  0.93645321  0.17284687  0.41775893    -0.43800
N942        N  0.82484809  0.05695533  0.57020225    -0.43800
C943        C  0.85419316  0.32952665  0.72412931    -0.00200
C944        C  0.88815176  0.34866488  0.71058264    -0.12100
C945        C  0.91560889  0.36761910  0.73214252     0.02000
C946        C  0.91065757  0.36674766  0.76838290    -0.00300
C947        C  0.87871992  0.34574942  0.78252174    -0.12000
C948        C  0.85047201  0.32714724  0.76091025     0.01900
H949        H  0.89288047  0.35045887  0.68275812     0.14900
H950        H  0.87452167  0.34593988  0.81049979     0.14900
C951        C  0.81815296  0.30716348  0.77802467     0.36600
C952        C  0.94736653  0.39026425  0.71643127     0.36500
N953        N  0.79332606  0.29163241  0.79367189    -0.43800
N954        N  0.97271503  0.40881436  0.70427763    -0.43800
C955        C  0.63482430  0.09544672  0.92371251    -0.00200
C956        C  0.65622090  0.07913168  0.95116449    -0.12100
C957        C  0.67477295  0.10367822  0.97575324     0.02000
C958        C  0.67170409  0.14526677  0.97290400    -0.00300
C959        C  0.65386818  0.16143017  0.94338188    -0.12000
C960        C  0.63504471  0.13683448  0.91899162     0.01900
H961        H  0.65612625  0.04728266  0.95475065     0.14900
H962        H  0.65256741  0.19332701  0.94045711     0.14900
C963        C  0.61419761  0.15474073  0.89042762     0.36600
C964        C  0.69675527  0.08527935  0.00341502     0.36500
N965        N  0.59738759  0.16927139  0.86767929    -0.43800
N966        N  0.71452642  0.06974187  0.02506095    -0.43800
C967        C  0.86016313  0.31869253  0.97491041    -0.00200
C968        C  0.84301714  0.33625576  0.94557101    -0.12100
C969        C  0.86590597  0.35953927  0.92311636     0.02000
C970        C  0.90678633  0.36450474  0.92934241    -0.00300
C971        C  0.92455262  0.34418415  0.95673957    -0.12000
C972        C  0.90168837  0.32141861  0.97957151     0.01900
H973        H  0.81127196  0.33412207  0.94150804     0.14900
H974        H  0.95595016  0.34817148  0.96163953     0.14900
C975        C  0.92158056  0.30212038  0.00798283     0.36600
C976        C  0.84666249  0.37949909  0.89472432     0.36500
N977        N  0.93795929  0.28680864  0.03058648    -0.43800
N978        N  0.83139595  0.39561580  0.87195728    -0.43800
C979        C  0.85504671  0.13508305  0.18890111    -0.00200
C980        C  0.85702164  0.09386909  0.18432638    -0.12100
C981        C  0.87783776  0.07047285  0.20788739     0.02000
C982        C  0.89721773  0.08853817  0.23641319    -0.00300
C983        C  0.89631638  0.12985707  0.24034064    -0.12000
C984        C  0.87581269  0.15326015  0.21669149     0.01900
H985        H  0.84130899  0.07982202  0.16287284     0.14900
H986        H  0.91200729  0.14389495  0.26183058     0.14900
C987        C  0.87792963  0.19585244  0.22059688     0.36600
C988        C  0.87700546  0.02799406  0.20334033     0.36500
N989        N  0.87973624  0.22997827  0.22336213    -0.43800
N990        N  0.87617292  0.99394681  0.19974097    -0.43800
C991        C  0.66951255  0.84588745  0.72966658    -0.00200
C992        C  0.63848355  0.82970526  0.74905775    -0.12100
C993        C  0.61606664  0.85368034  0.77111079     0.02000
C994        C  0.62558358  0.89444040  0.77476498    -0.00300
C995        C  0.65920165  0.90961428  0.75788685    -0.12000
C996        C  0.68058823  0.88585355  0.73467722     0.01900
H997        H  0.63027181  0.79882065  0.74537333     0.14900
H998        H  0.66707117  0.94062160  0.76089218     0.14900
C999        C  0.71262513  0.90331322  0.71505512     0.36600
C1000       C  0.58254779  0.83590705  0.78857063     0.36500
N1001       N  0.73818889  0.91702042  0.69899895    -0.43800
N1002       N  0.55552500  0.82152210  0.80216876    -0.43800
C1003       C  0.90422820  0.63049888  0.77887683    -0.00200
C1004       C  0.92162227  0.65517710  0.75395715    -0.12100
C1005       C  0.89799330  0.67526254  0.72998428     0.02000
C1006       C  0.85632626  0.67136790  0.73147086    -0.00300
C1007       C  0.83903759  0.65033833  0.75897854    -0.12000
C1008       C  0.86266813  0.62958249  0.78242440     0.01900
H1009       H  0.95361901  0.65635200  0.75151439     0.14900
H1010       H  0.80704560  0.64802850  0.76083385     0.14900
C1011       C  0.84376707  0.60629205  0.80915971     0.36600
C1012       C  0.91714772  0.69856971  0.70343345     0.36500
N1013       N  0.82880161  0.58761984  0.83065649    -0.43800
N1014       N  0.93247433  0.71716160  0.68207768    -0.43800
C1015       C  0.86417530  0.85120014  0.51393595    -0.00200
C1016       C  0.88188181  0.88676702  0.52548924    -0.12100
C1017       C  0.90404014  0.91049897  0.50297500     0.02000
C1018       C  0.90851593  0.89886241  0.46783160    -0.00300
C1019       C  0.89224799  0.86233183  0.45681210    -0.12000
C1020       C  0.87041341  0.83854430  0.47930930     0.01900
H1021       H  0.87776776  0.89662663  0.55213969     0.14900
H1022       H  0.89639309  0.85211663  0.43026246     0.14900
C1023       C  0.85549939  0.80109044  0.46605541     0.36600
C1024       C  0.92071045  0.94685766  0.51677492     0.36500
N1025       N  0.84345470  0.77112160  0.45554563    -0.43800
N1026       N  0.93410872  0.97578739  0.52822943    -0.43800
C1027       C  0.84994390  0.66218855  0.97323028    -0.00200
C1028       C  0.89011011  0.65849634  0.98206397    -0.12100
C1029       C  0.91701312  0.64153467  0.95900878     0.02000
C1030       C  0.90391007  0.62805237  0.92625326    -0.00300
C1031       C  0.86433942  0.63373123  0.91640225    -0.12000
C1032       C  0.83727163  0.65093351  0.93952581     0.01900
H1033       H  0.90040287  0.66788792  0.00757619     0.14900
H1034       H  0.85410378  0.62255144  0.89146616     0.14900
C1035       C  0.79629459  0.65383301  0.92911695     0.36600
C1036       C  0.95701088  0.63496012  0.97090792     0.36500
N1037       N  0.76333920  0.65626355  0.92116701    -0.43800
N1038       N  0.98883283  0.62955997  0.98090007    -0.43800
C1039       C  0.67518371  0.85120791  0.97142968    -0.00200
C1040       C  0.65241206  0.83206277  0.94571577    -0.12100
C1041       C  0.63047104  0.85383619  0.92173299     0.02000
C1042       C  0.63211158  0.89566628  0.92248134    -0.00300
C1043       C  0.65701911  0.91475928  0.94654054    -0.12000
C1044       C  0.67840720  0.89300159  0.97101201     0.01900
H1045       H  0.64992857  0.80000140  0.94559009     0.14900
H1046       H  0.65811057  0.94687398  0.94746232     0.14900
C1047       C  0.70407151  0.91448796  0.99462282     0.36600
C1048       C  0.60504372  0.83250675  0.89776735     0.36500
N1049       N  0.72486780  0.93261077  0.01273755    -0.43800
N1050       N  0.58456976  0.81500271  0.87893284    -0.43800
C1051       C  0.86392924  0.85438871  0.18692261    -0.00200
C1052       C  0.84287377  0.87402845  0.21316906    -0.12100
C1053       C  0.86235717  0.89825943  0.23723706     0.02000
C1054       C  0.90382794  0.90300777  0.23533014    -0.00300
C1055       C  0.92498444  0.88415417  0.20871192    -0.12000
C1056       C  0.90538297  0.85983798  0.18449255     0.01900
H1057       H  0.81092674  0.87070511  0.21469021     0.14900
H1058       H  0.95694223  0.88751503  0.20748466     0.14900
C1059       C  0.92863431  0.83995585  0.15827676     0.36600
C1060       C  0.83893618  0.91828157  0.26331066     0.36500
N1061       N  0.94747476  0.82427882  0.13724952    -0.43800
N1062       N  0.81985056  0.93408822  0.28408720    -0.43800
C1063       C  0.12684042  0.13588708  0.51564025    -0.00200
C1064       C  0.10293299  0.15784103  0.49321065    -0.12100
C1065       C  0.07687042  0.13878342  0.47027822     0.02000
C1066       C  0.07501503  0.09703387  0.46952872    -0.00300
C1067       C  0.09741237  0.07520010  0.49316270    -0.12000
C1068       C  0.12330514  0.09425337  0.51618286     0.01900
H1069       H  0.10451141  0.18995002  0.49377841     0.14900
H1070       H  0.09606052  0.04307608  0.49250477     0.14900
C1071       C  0.14740826  0.07022283  0.53858706     0.36600
C1072       C  0.05187535  0.16280406  0.44857527     0.36500
N1073       N  0.16660226  0.05055063  0.55630820    -0.43800
N1074       N  0.03197914  0.18282993  0.43176978    -0.43800
C1075       C  0.32669410  0.13964653  0.72806021    -0.00200
C1076       C  0.34370972  0.15801024  0.75743773    -0.12100
C1077       C  0.36382886  0.13567103  0.78226356     0.02000
C1078       C  0.36746487  0.09445859  0.77763134    -0.00300
C1079       C  0.34689444  0.07558100  0.75049395    -0.12000
C1080       C  0.32615913  0.09777633  0.72591437     0.01900
H1081       H  0.34253644  0.18994919  0.76039266     0.14900
H1082       H  0.34865801  0.04366999  0.74751601     0.14900
C1083       C  0.30421362  0.07679167  0.69920209     0.36600
C1084       C  0.38025123  0.15535228  0.81251922     0.36500
N1085       N  0.28640354  0.05957767  0.67818562    -0.43800
N1086       N  0.39277990  0.17082823  0.83716886    -0.43800
C1087       C  0.14580494  0.32105360  0.73019947    -0.00200
C1088       C  0.10481884  0.31379443  0.73027128    -0.12100
C1089       C  0.07988914  0.33489631  0.75267601     0.02000
C1090       C  0.09621542  0.36405694  0.77497238    -0.00300
C1091       C  0.13746609  0.36942438  0.77631092    -0.12000
C1092       C  0.16236410  0.34789600  0.75440778     0.01900
H1093       H  0.09217547  0.29275109  0.71183433     0.14900
H1094       H  0.15010480  0.39184930  0.79346474     0.14900
C1095       C  0.20444309  0.35591442  0.75545483     0.36600
C1096       C  0.03767673  0.32861240  0.74999188     0.36500
N1097       N  0.23819247  0.36210385  0.75616881    -0.43800
N1098       N  0.00388400  0.32336291  0.74756390    -0.43800
C1099       C  0.14714591  0.66944325  0.72712175    -0.00200
C1100       C  0.16636682  0.64527616  0.75106989    -0.12100
C1101       C  0.14465480  0.62408587  0.77570115     0.02000
C1102       C  0.10297836  0.62765097  0.77698786    -0.00300
C1103       C  0.08414754  0.65429554  0.75472425    -0.12000
C1104       C  0.10588492  0.67499428  0.72965141     0.01900
H1105       H  0.19816306  0.64140980  0.74936779     0.14900
H1106       H  0.05217520  0.65708898  0.75545613     0.14900
C1107       C  0.08536833  0.70191872  0.70698411     0.36600
C1108       C  0.16569554  0.59741182  0.79814221     0.36500
N1109       N  0.06903626  0.72375771  0.68900284    -0.43800
N1110       N  0.18281945  0.57572447  0.81565284    -0.43800
C1111       C  0.13274890  0.87114015  0.51662909    -0.00200
C1112       C  0.15222172  0.88436059  0.48666152    -0.12100
C1113       C  0.13293101  0.90773254  0.46221562     0.02000
C1114       C  0.09296650  0.91866306  0.46750618    -0.00300
C1115       C  0.07398744  0.90689665  0.49829553    -0.12000
C1116       C  0.09324576  0.88306160  0.52261613     0.01900
H1117       H  0.18284888  0.87626688  0.48218496     0.14900
H1118       H  0.04325418  0.91464685  0.50261218     0.14900
C1119       C  0.07052786  0.86901832  0.55189736     0.36600
C1120       C  0.15554598  0.92008866  0.43231964     0.36500
N1121       N  0.05160543  0.85779245  0.57494192    -0.43800
N1122       N  0.17473877  0.92932896  0.40878523    -0.43800
C1123       C  0.36238699  0.91014399  0.77531660    -0.00200
C1124       C  0.33932815  0.92859721  0.75004179    -0.12100
C1125       C  0.31661973  0.90585426  0.72681536     0.02000
C1126       C  0.31731445  0.86407593  0.72882819    -0.00300
C1127       C  0.33755697  0.84605688  0.75631488    -0.12000
C1128       C  0.36018644  0.86883147  0.77948475     0.01900
H1129       H  0.34071894  0.96053842  0.74728852     0.14900
H1130       H  0.33764334  0.81404395  0.75844907     0.14900
C1131       C  0.38229944  0.84934640  0.80654554     0.36600
C1132       C  0.29277306  0.92606352  0.70143932     0.36500
N1133       N  0.40010740  0.83422971  0.82841126    -0.43800
N1134       N  0.27336906  0.94264670  0.68155383    -0.43800
C1135       C  0.14634779  0.67781523  0.97331963    -0.00200
C1136       C  0.16521941  0.65081528  0.95130854    -0.12100
C1137       C  0.14332152  0.62731062  0.92819184     0.02000
C1138       C  0.10170695  0.63137428  0.92629952    -0.00300
C1139       C  0.08343062  0.66156847  0.94562951    -0.12000
C1140       C  0.10548422  0.68464295  0.96929583     0.01900
H1141       H  0.19687512  0.64623639  0.95378197     0.14900
H1142       H  0.05167151  0.66553491  0.94382326     0.14900
C1143       C  0.08584180  0.71496050  0.98934386     0.36600
C1144       C  0.16445978  0.59826417  0.90789969     0.36500
N1145       N  0.07047323  0.73955631  0.00536392    -0.43800
N1146       N  0.18242947  0.57517120  0.89230343    -0.43800
C1147       C  0.37125732  0.90161837  0.93187739    -0.00200
C1148       C  0.37601702  0.86035149  0.93103795    -0.12100
C1149       C  0.35697518  0.83606652  0.95511801     0.02000
C1150       C  0.33265443  0.85306762  0.98084764    -0.00300
C1151       C  0.32587952  0.89408046  0.98046089    -0.12000
C1152       C  0.34495922  0.91844749  0.95615632     0.01900
H1153       H  0.39647566  0.84723148  0.91258956     0.14900
H1154       H  0.30654129  0.90720595  0.99980155     0.14900
C1155       C  0.33970245  0.96070809  0.95854998     0.36600
C1156       C  0.36568947  0.79431348  0.95460710     0.36500
N1157       N  0.33553592  0.99460924  0.96054691    -0.43800
N1158       N  0.37310838  0.76094775  0.95411750    -0.43800
C1159       C  0.12679344  0.86073511  0.19013943    -0.00200
C1160       C  0.11024901  0.89635265  0.17829289    -0.12100
C1161       C  0.08601562  0.91936864  0.19976029     0.02000
C1162       C  0.07877749  0.90726101  0.23425403    -0.00300
C1163       C  0.09286411  0.87023582  0.24505049    -0.12000
C1164       C  0.11618392  0.84682729  0.22340745     0.01900
H1165       H  0.11679970  0.90677732  0.15229582     0.14900
H1166       H  0.08573438  0.85937346  0.27080404     0.14900
C1167       C  0.12737917  0.80825854  0.23591874     0.36600
C1168       C  0.06968843  0.95518064  0.18559530     0.36500
N1169       N  0.13566115  0.77732197  0.24628677    -0.43800
N1170       N  0.05628830  0.98343157  0.17364881    -0.43800
C1171       C  0.10330113  0.36981430  0.92800940    -0.00200
C1172       C  0.14315666  0.38160170  0.93253985    -0.12100
C1173       C  0.16799766  0.36197392  0.95571162     0.02000
C1174       C  0.15266399  0.33052805  0.97543055    -0.00300
C1175       C  0.11389241  0.31690145  0.96931891    -0.12000
C1176       C  0.08934028  0.33581564  0.94530525     0.01900
H1177       H  0.15450259  0.40730873  0.91888515     0.14900
H1178       H  0.10254986  0.29186972  0.98389654     0.14900
C1179       C  0.04970484  0.32070980  0.94014625     0.36600
C1180       C  0.20837074  0.37577674  0.95990582     0.36500
N1181       N  0.01820737  0.30785782  0.93582735    -0.43800
N1182       N  0.24071236  0.38693678  0.96290166    -0.43800
C1183       C  0.37337909  0.08545147  0.94060826    -0.00200
C1184       C  0.34679683  0.11166559  0.92514593    -0.12100
C1185       C  0.32349642  0.13696402  0.94562693     0.02000
C1186       C  0.32668591  0.13581021  0.98241221    -0.00300
C1187       C  0.35231748  0.10784210  0.99732707    -0.12000
C1188       C  0.37555447  0.08317800  0.97699269     0.01900
H1189       H  0.34536996  0.11342936  0.89700484     0.14900
H1190       H  0.35528367  0.10552599  0.02531365     0.14900
C1191       C  0.40150437  0.05577928  0.99436486     0.36600
C1192       C  0.29700215  0.16319879  0.92774837     0.36500
N1193       N  0.42198570  0.03393375  0.00867596    -0.43800
N1194       N  0.27607980  0.18355672  0.91227833    -0.43800
C1195       C  0.06981468  0.10075387  0.23591762    -0.00200
C1196       C  0.08707042  0.08083648  0.20783004    -0.12100
C1197       C  0.11105212  0.10102584  0.18433273     0.02000
C1198       C  0.11806990  0.14201602  0.18901427    -0.00300
C1199       C  0.09976860  0.16225419  0.21643944    -0.12000
C1200       C  0.07544272  0.14204912  0.23973220     0.01900
H1201       H  0.08353124  0.04903589  0.20530002     0.14900
H1202       H  0.10442513  0.19391145  0.21959067     0.14900
C1203       C  0.05596062  0.16452974  0.26673804     0.36600
C1204       C  0.13029779  0.07819275  0.15740999     0.36500
N1205       N  0.04015437  0.18275900  0.28811949    -0.43800
N1206       N  0.14557672  0.05922214  0.13622595    -0.43800
C1207       C  0.16678613  0.34296003  0.49772395    -0.00200
C1208       C  0.19190479  0.34741664  0.46879695    -0.12100
C1209       C  0.18306866  0.37394305  0.44211006     0.02000
C1210       C  0.14772579  0.39583693  0.44317178    -0.00300
C1211       C  0.12237707  0.39147824  0.47185156    -0.12000
C1212       C  0.13166818  0.36567356  0.49914486     0.01900
H1213       H  0.21941949  0.33112129  0.46754668     0.14900
H1214       H  0.09559100  0.40893257  0.47318679     0.14900
C1215       C  0.10426113  0.36292135  0.52785066     0.36600
C1216       C  0.21194150  0.38010362  0.41497890     0.36500
N1217       N  0.08210929  0.36101009  0.55074192    -0.43800
N1218       N  0.23523764  0.38542322  0.39342650    -0.43800
C1219       C  0.16021311  0.65604681  0.20873154    -0.00200
C1220       C  0.18432341  0.65430849  0.23861534    -0.12100
C1221       C  0.17606661  0.62802903  0.26567769     0.02000
C1222       C  0.14254865  0.60291420  0.26377438    -0.00300
C1223       C  0.11767273  0.60520640  0.23455697    -0.12000
C1224       C  0.12618349  0.63123681  0.20712641     0.01900
H1225       H  0.21076598  0.67262954  0.24047868     0.14900
H1226       H  0.09192594  0.58586165  0.23288084     0.14900
C1227       C  0.09905780  0.63189038  0.17813840     0.36600
C1228       C  0.20353359  0.62624740  0.29443166     0.36500
N1229       N  0.07682355  0.63194389  0.15522498    -0.43800
N1230       N  0.22557508  0.62500380  0.31745138    -0.43800
C1231       C  0.16383014  0.65666132  0.49586376    -0.00200
C1232       C  0.12616423  0.63865716  0.49495336    -0.12100
C1233       C  0.11623098  0.61133129  0.46860714     0.02000
C1234       C  0.14413477  0.60203430  0.44260555    -0.00300
C1235       C  0.18180259  0.61950777  0.44377407    -0.12000
C1236       C  0.19206948  0.64600946  0.47036650     0.01900
H1237       H  0.10458658  0.64584781  0.51484115     0.14900
H1238       H  0.20380343  0.61100199  0.42463057     0.14900
C1239       C  0.23290078  0.65871148  0.47272613     0.36600
C1240       C  0.07752011  0.59290826  0.46883949     0.36500
N1241       N  0.26581721  0.66813635  0.47493893    -0.43800
N1242       N  0.04645872  0.57817064  0.46906631    -0.43800
C1243       C  0.14310254  0.39637079  0.26403327    -0.00200
C1244       C  0.18232720  0.38465535  0.25926678    -0.12100
C1245       C  0.19251157  0.35896898  0.23222535     0.02000
C1246       C  0.16308912  0.34498519  0.20878499    -0.00300
C1247       C  0.12366800  0.35695831  0.21347911    -0.12000
C1248       C  0.11346706  0.38217061  0.24124609     0.01900
H1249       H  0.20517840  0.39625950  0.27649007     0.14900
H1250       H  0.10084441  0.34601135  0.19595822     0.14900
C1251       C  0.07262304  0.39305037  0.24630782     0.36600
C1252       C  0.23363631  0.34802846  0.22905082     0.36500
N1253       N  0.03997867  0.40183182  0.25091815    -0.43800
N1254       N  0.26664506  0.33930397  0.22719460    -0.43800
C1255       C  0.40324073  0.85008904  0.44585065    -0.00200
C1256       C  0.38061076  0.81540940  0.44253747    -0.12100
C1257       C  0.35206327  0.80539854  0.46729786     0.02000
C1258       C  0.34543195  0.83058674  0.49633567    -0.00300
C1259       C  0.36816261  0.86564410  0.49942336    -0.12000
C1260       C  0.39678841  0.87554232  0.47439771     0.01900
H1261       H  0.38590608  0.79563972  0.42068596     0.14900
H1262       H  0.36348610  0.88544029  0.52133472     0.14900
C1263       C  0.41882177  0.91215168  0.47795013     0.36600
C1264       C  0.33241976  0.76761319  0.46309387     0.36500
N1265       N  0.43661267  0.94148650  0.48029828    -0.43800
N1266       N  0.31761098  0.73691166  0.45918838    -0.43800
C1267       C  0.60083481  0.84225879  0.26162377    -0.00200
C1268       C  0.60531108  0.86855707  0.23380757    -0.12100
C1269       C  0.62999907  0.85945865  0.20553469     0.02000
C1270       C  0.65097854  0.82330807  0.20484031    -0.00300
C1271       C  0.64614989  0.79704206  0.23290599    -0.12000
C1272       C  0.62121128  0.80606604  0.26089045     0.01900
H1273       H  0.58909247  0.89614841  0.23408474     0.14900
H1274       H  0.66128932  0.76883862  0.23272981     0.14900
C1275       C  0.61542406  0.77698529  0.28780997     0.36600
C1276       C  0.63381636  0.88826513  0.17819003     0.36500
N1277       N  0.61037960  0.75365752  0.30928422    -0.43800
N1278       N  0.63680140  0.91149335  0.15635043    -0.43800
C1279       C  0.66283066  0.83361790  0.49637641    -0.00200
C1280       C  0.66170370  0.81005244  0.46603310    -0.12100
C1281       C  0.63579599  0.81815521  0.43876010     0.02000
C1282       C  0.61037698  0.85097715  0.44096602    -0.00300
C1283       C  0.61242850  0.87566063  0.47056654    -0.12000
C1284       C  0.63827408  0.86731119  0.49818224     0.01900
H1285       H  0.67994693  0.78387486  0.46404125     0.14900
H1286       H  0.59286318  0.90089106  0.47248687     0.14900
C1287       C  0.63915896  0.89401512  0.52766230     0.36600
C1288       C  0.63468075  0.79097099  0.40963133     0.36500
N1289       N  0.63993775  0.91561952  0.55115863    -0.43800
N1290       N  0.63436774  0.76907024  0.38636380    -0.43800
C1291       C  0.34089826  0.83204008  0.21475302    -0.00200
C1292       C  0.36152727  0.86838331  0.21427984    -0.12100
C1293       C  0.38890792  0.87821917  0.24054577     0.02000
C1294       C  0.39527845  0.85195012  0.26829727    -0.00300
C1295       C  0.37415491  0.81616602  0.26924998    -0.12000
C1296       C  0.34805503  0.80552048  0.24245314     0.01900
H1297       H  0.35691832  0.88872320  0.19298895     0.14900
H1298       H  0.38017357  0.79529576  0.28988114     0.14900
C1299       C  0.33325685  0.76527159  0.24199169     0.36600
C1300       C  0.41127388  0.91467287  0.23803862     0.36500
N1301       N  0.32258078  0.73262091  0.24150195    -0.43800
N1302       N  0.42960806  0.94367929  0.23616514    -0.43800
C1303       C  0.85206064  0.59583730  0.44051722    -0.00200
C1304       C  0.87912681  0.60259746  0.46762751    -0.12100
C1305       C  0.86981860  0.62805181  0.49540254     0.02000
C1306       C  0.83265118  0.64710491  0.49627996    -0.00300
C1307       C  0.80612021  0.64084623  0.46845376    -0.12000
C1308       C  0.81539030  0.61528632  0.44093965     0.01900
H1309       H  0.90734375  0.58747824  0.46727721     0.14900
H1310       H  0.77739457  0.65498324  0.46871370     0.14900
C1311       C  0.78618674  0.60785341  0.41414330     0.36600
C1312       C  0.89936152  0.63457461  0.52199805     0.36500
N1313       N  0.76300154  0.60146741  0.39260037    -0.43800
N1314       N  0.92359875  0.63943794  0.54292316    -0.43800
C1315       C  0.83463769  0.34147249  0.20712376    -0.00200
C1316       C  0.80789458  0.35120870  0.23382359    -0.12100
C1317       C  0.81859117  0.37763783  0.26027798     0.02000
C1318       C  0.85698364  0.39404436  0.26093803    -0.00300
C1319       C  0.88434308  0.38356814  0.23526179    -0.12000
C1320       C  0.87349755  0.35767749  0.20822649     0.01900
H1321       H  0.77789461  0.33947899  0.23328377     0.14900
H1322       H  0.91384033  0.39653702  0.23588679     0.14900
C1323       C  0.90290807  0.34888255  0.18215230     0.36600
C1324       C  0.78911693  0.38949628  0.28541576     0.36500
N1325       N  0.92708895  0.34269696  0.16155833    -0.43800
N1326       N  0.76575873  0.39963158  0.30552348    -0.43800
C1327       C  0.83581814  0.33727073  0.49228580    -0.00200
C1328       C  0.81289503  0.33793454  0.46167114    -0.12100
C1329       C  0.82185451  0.36373465  0.43448784     0.02000
C1330       C  0.85453126  0.38977264  0.43736675    -0.00300
C1331       C  0.87860975  0.38814011  0.46707651    -0.12000
C1332       C  0.86972287  0.36216496  0.49438031     0.01900
H1333       H  0.78676511  0.31924763  0.45931778     0.14900
H1334       H  0.90402029  0.40788072  0.46918607     0.14900
C1335       C  0.89650439  0.36132121  0.52360422     0.36600
C1336       C  0.79601570  0.36388462  0.40455026     0.36500
N1337       N  0.91860045  0.36085680  0.54661048    -0.43800
N1338       N  0.77523814  0.36347051  0.38060884    -0.43800
C1339       C  0.83330886  0.65038670  0.20687650    -0.00200
C1340       C  0.87160019  0.63405696  0.20641953    -0.12100
C1341       C  0.88468833  0.60934002  0.23348168     0.02000
C1342       C  0.85935996  0.60065941  0.26173578    -0.00300
C1343       C  0.82148493  0.61716352  0.26230659    -0.12000
C1344       C  0.80823533  0.64141803  0.23536716     0.01900
H1345       H  0.89124625  0.64043378  0.18484700     0.14900
H1346       H  0.80137426  0.60941695  0.28322365     0.14900
C1347       C  0.76759481  0.65423744  0.23665661     0.36600
C1348       C  0.92377793  0.59246669  0.23145755     0.36500
N1349       N  0.73488946  0.66411063  0.23780582    -0.43800
N1350       N  0.95509524  0.57888796  0.22987465    -0.43800
C1351       C  0.59690433  0.14483408  0.43744120    -0.00200
C1352       C  0.60244726  0.11844481  0.46503309    -0.12100
C1353       C  0.62772232  0.12821574  0.49286218     0.02000
C1354       C  0.64804139  0.16498749  0.49319939    -0.00300
C1355       C  0.64340483  0.19059208  0.46479536    -0.12000
C1356       C  0.61802397  0.18096119  0.43721850     0.01900
H1357       H  0.58624371  0.09057697  0.46515051     0.14900
H1358       H  0.65871633  0.21895048  0.46463843     0.14900
C1359       C  0.61294812  0.20922800  0.40956726     0.36600
C1360       C  0.63275569  0.09973863  0.52025591     0.36500
N1361       N  0.60889865  0.23167294  0.38726618    -0.43800
N1362       N  0.63674175  0.07667134  0.54205921    -0.43800
C1363       C  0.33284416  0.15971197  0.21120579    -0.00200
C1364       C  0.34073056  0.18773709  0.23757784    -0.12100
C1365       C  0.36936305  0.18078846  0.26287937     0.02000
C1366       C  0.38979804  0.14470193  0.26279320    -0.00300
C1367       C  0.38172638  0.11620275  0.23708476    -0.12000
C1368       C  0.35370380  0.12347028  0.21110933     0.01900
H1369       H  0.32578426  0.21604621  0.23755459     0.14900
H1370       H  0.39787838  0.08856018  0.23706134     0.14900
C1371       C  0.34705802  0.09321203  0.18498459     0.36600
C1372       C  0.37894728  0.21188301  0.28753985     0.36500
N1373       N  0.34207196  0.06883236  0.16409546    -0.43800
N1374       N  0.38708041  0.23683513  0.30711364    -0.43800
C1375       C  0.33735108  0.15605415  0.49460530    -0.00200
C1376       C  0.34158199  0.18148350  0.46603888    -0.12100
C1377       C  0.36767906  0.17282901  0.43897643     0.02000
C1378       C  0.39010661  0.13784021  0.43982535    -0.00300
C1379       C  0.38496805  0.11145648  0.46755130    -0.12000
C1380       C  0.35908829  0.12041950  0.49504317     0.01900
H1381       H  0.32553688  0.20915439  0.46539990     0.14900
H1382       H  0.40204977  0.08441319  0.46814936     0.14900
C1383       C  0.35578766  0.09288055  0.52344430     0.36600
C1384       C  0.37192729  0.20109153  0.41117951     0.36500
N1385       N  0.35330993  0.07101231  0.54638845    -0.43800
N1386       N  0.37507457  0.22369282  0.38886049    -0.43800
C1387       C  0.64804145  0.16785868  0.20498897    -0.00200
C1388       C  0.62884352  0.13081627  0.20319617    -0.12100
C1389       C  0.60286188  0.11860129  0.22963741     0.02000
C1390       C  0.59595095  0.14358365  0.25860708    -0.00300
C1391       C  0.61457930  0.18077589  0.26003577    -0.12000
C1392       C  0.63978348  0.19334157  0.23339455     0.01900
H1393       H  0.63417483  0.11137450  0.18115140     0.14900
H1394       H  0.60784915  0.20084381  0.28134286     0.14900
C1395       C  0.65360781  0.23393447  0.23421305     0.36600
C1396       C  0.58354856  0.08049004  0.22636638     0.36500
N1397       N  0.66403676  0.26666363  0.23441090    -0.43800
N1398       N  0.56833737  0.04981273  0.22343070    -0.43800
C1399       C  0.65512139  0.35917537  0.99035616    -0.00200
C1400       C  0.63883291  0.34355217  0.95936210    -0.12100
C1401       C  0.61214494  0.36568321  0.93929251     0.02000
C1402       C  0.60155398  0.40422184  0.95008129    -0.00300
C1403       C  0.61958621  0.42053350  0.97977908    -0.12000
C1404       C  0.64606824  0.39869937  0.99977125     0.01900
H1405       H  0.64558243  0.31342720  0.95157800     0.14900
H1406       H  0.61169579  0.45018936  0.98817768     0.14900
C1407       C  0.66328947  0.41800185  0.02985528     0.36600
C1408       C  0.59532809  0.34804832  0.90827943     0.36500
N1409       N  0.67677894  0.43406826  0.05380762    -0.43800
N1410       N  0.58202893  0.33385597  0.88335120    -0.43800
C1411       C  0.33935012  0.64163189  0.99626378    -0.00200
C1412       C  0.35915099  0.65554541  0.96659747    -0.12100
C1413       C  0.38432647  0.63071136  0.94735267     0.02000
C1414       C  0.39040860  0.59124608  0.95808126    -0.00300
C1415       C  0.36864653  0.57680831  0.98641526    -0.12000
C1416       C  0.34274928  0.60117150  0.00491700     0.01900
H1417       H  0.35569925  0.68605556  0.95890803     0.14900
H1418       H  0.37247154  0.54639941  0.99457839     0.14900
C1419       C  0.31904212  0.58342233  0.03196640     0.36600
C1420       C  0.40317648  0.64628572  0.91662187     0.36500
N1421       N  0.29967469  0.56897963  0.05327910    -0.43800
N1422       N  0.41761080  0.65907168  0.89178386    -0.43800
C1423       C  0.65256618  0.64095437  0.98593361    -0.00200
C1424       C  0.62930322  0.65661105  0.95911466    -0.12100
C1425       C  0.60252654  0.63230809  0.94070906     0.02000
C1426       C  0.59851697  0.59198859  0.94956773    -0.00300
C1427       C  0.62405531  0.57595680  0.97450336    -0.12000
C1428       C  0.65136731  0.59985234  0.99219501     0.01900
H1429       H  0.63068696  0.68805931  0.95367290     0.14900
H1430       H  0.62173210  0.54481911  0.98103823     0.14900
C1431       C  0.67801534  0.58134497  0.01647294     0.36600
C1432       C  0.57857211  0.64934031  0.91363736     0.36500
N1433       N  0.69952319  0.56606028  0.03549186    -0.43800
N1434       N  0.55925993  0.66268386  0.89185557    -0.43800
C1435       C  0.39468828  0.39817361  0.95857037    -0.00200
C1436       C  0.38295998  0.36220270  0.94292967    -0.12100
C1437       C  0.35886968  0.33495720  0.96090962     0.02000
C1438       C  0.34621379  0.34376449  0.99518866    -0.00300
C1439       C  0.35798191  0.38009991  0.01034364    -0.12000
C1440       C  0.38205888  0.40689764  0.99262086     0.01900
H1441       H  0.39366281  0.35494410  0.91710123     0.14900
H1442       H  0.34876810  0.38762393  0.03656605     0.14900
C1443       C  0.39509520  0.44244802  0.01058399     0.36600
C1444       C  0.34951137  0.29753787  0.94435371     0.36500
N1445       N  0.40573337  0.47090757  0.02483318    -0.43800
N1446       N  0.34203356  0.26745539  0.93120226    -0.43800
C1447       C  0.58921146  0.60546049  0.75593731    -0.00200
C1448       C  0.57509890  0.62270613  0.72545837    -0.12100
C1449       C  0.59923997  0.64675047  0.70503062     0.02000
C1450       C  0.63908801  0.65426701  0.71494197    -0.00300
C1451       C  0.65252589  0.63907801  0.74687348    -0.12000
C1452       C  0.62792479  0.61479185  0.76735168     0.01900
H1453       H  0.54527683  0.61587464  0.71671920     0.14900
H1454       H  0.68278820  0.64465841  0.75511721     0.14900
C1455       C  0.64343705  0.59812981  0.79897008     0.36600
C1456       C  0.58153427  0.66275658  0.67404589     0.36500
N1457       N  0.65576275  0.58441110  0.82421560    -0.43800
N1458       N  0.56585115  0.67486906  0.64962501    -0.43800
C1459       C  0.63845803  0.35052918  0.71087415    -0.00200
C1460       C  0.60293316  0.36440370  0.69636750    -0.12100
C1461       C  0.57697966  0.38812946  0.71542565     0.02000
C1462       C  0.58618316  0.39927882  0.74988886    -0.00300
C1463       C  0.62090866  0.38465556  0.76516862    -0.12000
C1464       C  0.64684230  0.36016176  0.74612930     0.01900
H1465       H  0.59530739  0.35697375  0.66969706     0.14900
H1466       H  0.62826894  0.39329648  0.79162122     0.14900
C1467       C  0.68252760  0.34687607  0.76292022     0.36600
C1468       C  0.54139118  0.40170527  0.69858105     0.36500
N1469       N  0.71121670  0.33599637  0.77612709    -0.43800
N1470       N  0.51273786  0.41234674  0.68518469    -0.43800
C1471       C  0.34794860  0.34534039  0.71351010    -0.00200
C1472       C  0.37095663  0.37429682  0.69643667    -0.12100
C1473       C  0.39353811  0.40204099  0.71478623     0.02000
C1474       C  0.39465293  0.40122937  0.75135581    -0.00300
C1475       C  0.37223691  0.37248167  0.76895728    -0.12000
C1476       C  0.34869261  0.34477542  0.75047724     0.01900
H1477       H  0.37087620  0.37621152  0.66830614     0.14900
H1478       H  0.37281193  0.37201449  0.79714242     0.14900
C1479       C  0.32543719  0.31696785  0.77038791     0.36600
C1480       C  0.41412955  0.43241221  0.69541683     0.36500
N1481       N  0.30676413  0.29514260  0.78682424    -0.43800
N1482       N  0.42999069  0.45735834  0.68020226    -0.43800
C1483       C  0.39850365  0.60576737  0.75135546    -0.00200
C1484       C  0.36311120  0.62021937  0.76549299    -0.12100
C1485       C  0.33877615  0.64593240  0.74644838     0.02000
C1486       C  0.34982919  0.65773737  0.71240958    -0.00300
C1487       C  0.38607913  0.64401342  0.69901417    -0.12000
C1488       C  0.41014361  0.61839023  0.71797023     0.01900
H1489       H  0.35389992  0.61036290  0.79103804     0.14900
H1490       H  0.39553283  0.65279733  0.67322893     0.14900
C1491       C  0.44609535  0.60405729  0.70205192     0.36600
C1492       C  0.30179789  0.65776506  0.76195932     0.36500
N1493       N  0.47495378  0.59231917  0.68963753    -0.43800
N1494       N  0.27223937  0.66697359  0.77475910    -0.43800
loop_ 
_geom_bond_atom_site_label_1 
_geom_bond_atom_site_label_2 
_geom_bond_distance 
_geom_bond_site_symmetry_2 
_ccdc_geom_bond_type 
N1            C6   1.353       .  A
N1            C5   1.354       .  A
N1           H33   1.036       .  S
N2            C9   1.355       .  A
N2           C10   1.355       .  A
N3            C8   1.352       .  A
N3            C7   1.352       .  A
N3           H34   1.036       .  S
N4           C11   1.354       .  A
N4           C12   1.356       .  A
C5           C13   1.385       .  A
C5           C21   1.415       .  A
C6           C22   1.416       .  A
C6           C14   1.387       .  A
C7           C15   1.388       .  A
C7           C24   1.417       .  A
C8           C23   1.413       .  A
C8           C16   1.385       .  A
C9           C21   1.416       .  A
C9           C17   1.385       .  A
C10          C24   1.418       .  A
C10          C18   1.387       .  A
C11          C19   1.387       .  A
C11          C22   1.420       .  A
C12          C20   1.385       .  A
C12          C23   1.417       .  A
C13          C14   1.378       .  A
C13          H25   1.082       .  S
C14          H26   1.082       .  S
C15          C16   1.379       .  A
C15          H27   1.083       .  S
C16          H28   1.083       .  S
C17          C18   1.368       .  A
C17          H29   1.082       .  S
C18          H30   1.081       .  S
C19          C20   1.371       .  A
C19          H31   1.082       .  S
C20          H32   1.082       .  S
C21        C1462   1.497       .  S
C22        C1474   1.494       .  S
C23        C1483   1.497       .  S
C24        C1447   1.494       .  S
N35          C40   1.354       .  A
N35          C39   1.353       .  A
N35          H67   1.043       .  S
N36          C43   1.349       .  A
N36          C44   1.351       .  A
N37          C42   1.352       .  A
N37          C41   1.356       .  A
N37          H68   1.043       .  S
N38          C45   1.354       .  A
N38          C46   1.352       .  A
C39          C47   1.388       .  A
C39          C55   1.415       .  A
C40          C56   1.414       .  A
C40          C48   1.387       .  A
C41          C49   1.386       .  A
C41          C58   1.414       .  A
C42          C57   1.413       .  A
C42          C50   1.388       .  A
C43          C55   1.409       .  A
C43          C51   1.387       .  A
C44          C58   1.409       .  A
C44          C52   1.384       .  A
C45          C53   1.386       .  A
C45          C56   1.416       .  A
C46          C54   1.386       .  A
C46          C57   1.414       .  A
C47          C48   1.375       .  A
C47          H59   1.082       .  S
C48          H60   1.082       .  S
C49          C50   1.372       .  A
C49          H61   1.082       .  S
C50          H62   1.082       .  S
C51          C52   1.375       .  A
C51          H63   1.083       .  S
C52          H64   1.082       .  S
C53          C54   1.375       .  A
C53          H65   1.082       .  S
C54          H66   1.082       .  S
C55        C1426   1.491       .  S
C56        C1414   1.499       .  S
C57        C1435   1.490       .  S
C58        C1402   1.496       .  S
N69          C74   1.352       .  A
N69          C73   1.355       .  A
N69         H101   1.040       .  S
N70          C77   1.351       .  A
N70          C78   1.348       .  A
N71          C76   1.354       .  A
N71          C75   1.351       .  A
N71         H102   1.040       .  S
N72          C79   1.351       .  A
N72          C80   1.354       .  A
C73          C81   1.386       .  A
C73          C89   1.413       .  A
C74          C90   1.416       .  A
C74          C82   1.390       .  A
C75          C83   1.387       .  A
C75          C92   1.411       .  A
C76          C91   1.413       .  A
C76          C84   1.387       .  A
C77          C89   1.408       .  A
C77          C85   1.385       .  A
C78          C92   1.408       .  A
C78          C86   1.386       .  A
C79          C87   1.386       .  A
C79          C90   1.416       .  A
C80          C88   1.385       .  A
C80          C91   1.415       .  A
C81          C82   1.374       .  A
C81          H93   1.083       .  S
C82          H94   1.082       .  S
C83          C84   1.372       .  A
C83          H95   1.082       .  S
C84          H96   1.082       .  S
C85          C86   1.372       .  A
C85          H97   1.082       .  S
C86          H98   1.082       .  S
C87          C88   1.376       .  A
C87          H99   1.082       .  S
C88         H100   1.082       .  S
C89        C1378   1.490       .  S
C90        C1351   1.488       .  S
C91        C1390   1.494       .  S
C92        C1366   1.477       .  S
N103        C108   1.352       .  A
N103        C107   1.355       .  A
N103        H135   1.040       .  S
N104        C111   1.355       .  A
N104        C112   1.352       .  A
N105        C110   1.354       .  A
N105        C109   1.350       .  A
N105        H136   1.040       .  S
N106        C113   1.347       .  A
N106        C114   1.351       .  A
C107        C115   1.387       .  A
C107        C123   1.415       .  A
C108        C124   1.413       .  A
C108        C116   1.388       .  A
C109        C117   1.389       .  A
C109        C126   1.413       .  A
C110        C125   1.412       .  A
C110        C118   1.386       .  A
C111        C123   1.416       .  A
C111        C119   1.384       .  A
C112        C126   1.415       .  A
C112        C120   1.386       .  A
C113        C121   1.386       .  A
C113        C124   1.407       .  A
C114        C122   1.385       .  A
C114        C125   1.409       .  A
C115        C116   1.371       .  A
C115        H127   1.082       .  S
C116        H128   1.082       .  S
C117        C118   1.373       .  A
C117        H129   1.082       .  S
C118        H130   1.083       .  S
C119        C120   1.377       .  A
C119        H131   1.082       .  S
C120        H132   1.082       .  S
C121        C122   1.373       .  A
C121        H133   1.082       .  S
C122        H134   1.082       .  S
C123       C1342   1.499       .  S
C124       C1318   1.478       .  S
C125       C1330   1.491       .  S
C126       C1303   1.486       .  S
N137        C142   1.353       .  A
N137        C141   1.354       .  A
N137        H169   1.041       .  S
N138        C145   1.352       .  A
N138        C146   1.350       .  A
N139        C144   1.354       .  A
N139        C143   1.354       .  A
N139        H170   1.041       .  S
N140        C147   1.352       .  A
N140        C148   1.353       .  A
C141        C149   1.387       .  A
C141        C157   1.412       .  A
C142        C158   1.413       .  A
C142        C150   1.387       .  A
C143        C151   1.387       .  A
C143        C160   1.415       .  A
C144        C159   1.416       .  A
C144        C152   1.388       .  A
C145        C157   1.410       .  A
C145        C153   1.385       .  A
C146        C160   1.412       .  A
C146        C154   1.387       .  A
C147        C155   1.385       .  A
C147        C158   1.414       .  A
C148        C156   1.387       .  A
C148        C159   1.416       .  A
C149        C150   1.373       .  A
C149        H161   1.082       .  S
C150        H162   1.082       .  S
C151        C152   1.373       .  A
C151        H163   1.082       .  S
C152        H164   1.082       .  S
C153        C154   1.373       .  A
C153        H165   1.082       .  S
C154        H166   1.082       .  S
C155        C156   1.377       .  A
C155        H167   1.082       .  S
C156        H168   1.082       .  S
C157       C1294   1.491       .  S
C158       C1267   1.491       .  S
C159       C1282   1.496       .  S
C160       C1255   1.489       .  S
N171        C176   1.352       .  A
N171        C175   1.355       .  A
N171        H203   1.040       .  S
N172        C179   1.354       .  A
N172        C180   1.351       .  A
N173        C178   1.356       .  A
N173        C177   1.352       .  A
N173        H204   1.039       .  S
N174        C181   1.351       .  A
N174        C182   1.353       .  A
C175        C183   1.387       .  A
C175        C191   1.414       .  A
C176        C192   1.414       .  A
C176        C184   1.388       .  A
C177        C185   1.389       .  A
C177        C194   1.416       .  A
C178        C193   1.416       .  A
C178        C186   1.387       .  A
C179        C191   1.416       .  A
C179        C187   1.385       .  A
C180        C194   1.415       .  A
C180        C188   1.387       .  A
C181        C189   1.386       .  A
C181        C192   1.413       .  A
C182        C190   1.385       .  A
C182        C193   1.414       .  A
C183        C184   1.372       .  A
C183        H195   1.082       .  S
C184        H196   1.082       .  S
C185        C186   1.371       .  A
C185        H197   1.082       .  S
C186        H198   1.082       .  S
C187        C188   1.375       .  A
C187        H199   1.082       .  S
C188        H200   1.082       .  S
C189        C190   1.375       .  A
C189        H201   1.082       .  S
C190        H202   1.082       .  S
C191       C1210   1.497       .  S
C192       C1234   1.485       .  S
C193       C1222   1.499       .  S
C194       C1243   1.483       .  S
Zr205       O206   2.447       .  S
Zr205       O207   2.433       .  S
Zr205       O208   2.428       .  S
Zr205       O211   2.434       .  S
Zr205       O213   2.380       .  S
Zr205       O214   2.381       .  S
Zr205       O215   2.409       .  S
Zr205       O216   2.402       .  S
O206        H262   0.991       .  S
O206        H270   0.990       .  S
O207        C227   1.283       .  A
O208        C229   1.282       .  A
O209       Zr219   2.417       .  S
O209        C228   1.280       .  A
O210       Zr218   2.455       .  S
O210        C229   1.288       .  A
O211        C228   1.285       .  A
O212       Zr220   2.384       .  S
O212        C227   1.274       .  A
O213       Zr218   2.393       .  S
O213       Zr220   2.385       .  S
O214       Zr219   2.385       .  S
O214       Zr220   2.381       .  S
O214        H249   0.964       .  S
O215       Zr218   2.397       .  S
O215       Zr235   2.384       .  S
O215        H252   0.964       .  S
O216       Zr219   2.388       .  S
O216       Zr235   2.394       .  S
Zr217       O242   2.438   1_554  S
Zr217       O236   2.447       .  S
Zr217       O244   2.444   1_554  S
Zr217       O232   2.433   1_554  S
Zr217       O223   2.402       .  S
Zr217       O224   2.411       .  S
Zr217       O225   2.383       .  S
Zr217       O226   2.385       .  S
Zr218       O237   2.434       .  S
Zr218       O230   2.436       .  S
Zr218       O231   2.429       .  S
Zr218       O224   2.409       .  S
Zr218       O225   2.397       .  S
Zr219       O221   2.437       .  S
Zr219       O243   2.439       .  S
Zr219       O245   2.397       .  S
Zr219       O223   2.388       .  S
Zr219       O226   2.393       .  S
Zr220       O246   2.433       .  S
Zr220       O247   2.435       .  S
Zr220       O222   2.439       .  S
Zr220       O223   2.385       .  S
Zr220       O224   2.380       .  S
O221        H258   0.990       .  S
O222        H253   0.990       .  S
O222        H267   0.990       .  S
O224        H250   0.962       .  S
O225       Zr235   2.373       .  S
O226       Zr235   2.374       .  S
O226        H251   0.965       .  S
C227       C1198   1.463       .  S
C228       C1363   1.480       .  S
C229       C1246   1.479       .  S
O230        H266   0.990       .  S
O231        C233   1.285       .  A
O232        C233   1.282   1_556  A
C233       C1174   1.466   1_554  S
O234       Zr235   2.439       .  S
O234        H263   0.990       .  S
Zr235       O238   2.438       .  S
Zr235       O239   2.438       .  S
Zr235       O240   2.405       .  S
O236        C241   1.286       .  A
O237        H254   0.990       .  S
O237        H269   0.990       .  S
O238        H255   0.990       .  S
O239        H259   0.990       .  S
O239        H268   0.990       .  S
O240        C241   1.280       .  A
C241       C1438   1.491   1_554  S
O242        H261   0.990       .  S
O242        H265   0.991       .  S
O243        H257   0.990       .  S
O243        H264   0.990       .  S
O244        C248   1.285   1_556  A
O245        C248   1.280       .  A
O246        H256   0.990       .  S
O247        H260   0.990       .  S
C248       C1186   1.491   1_554  S
Zr271       O272   2.446   1_554  S
Zr271       O273   2.455       .  S
Zr271       O274   2.429   1_554  S
Zr271       O277   2.417   1_554  S
Zr271       O279   2.380       .  S
Zr271       O280   2.383       .  S
Zr271       O281   2.410       .  S
Zr271       O282   2.408       .  S
O272        H328   0.991       .  S
O272        H336   0.991       .  S
O273        C293   1.287       .  A
O274        C295   1.281   1_556  A
O275       Zr285   2.438       .  S
O275        C294   1.286       .  A
O276       Zr284   2.434       .  S
O276        C295   1.284       .  A
O277        C294   1.282   1_556  A
O278       Zr286   2.409       .  S
O278        C293   1.280       .  A
O279       Zr284   2.406       .  S
O279       Zr286   2.385       .  S
O280       Zr285   2.393       .  S
O280       Zr286   2.372       .  S
O280        H315   0.968       .  S
O281       Zr284   2.404       .  S
O281       Zr301   2.383       .  S
O281        H318   0.963       .  S
O282       Zr285   2.397       .  S
O282       Zr301   2.387       .  S
Zr283       O308   2.439       .  S
Zr283       O302   2.439       .  S
Zr283       O310   2.432       .  S
Zr283       O298   2.434       .  S
Zr283       O289   2.402       .  S
Zr283       O290   2.410       .  S
Zr283       O291   2.380       .  S
Zr283       O292   2.383       .  S
Zr284       O303   2.436       .  S
Zr284       O296   2.436       .  S
Zr284       O297   2.449       .  S
Zr284       O290   2.398       .  S
Zr284       O291   2.396       .  S
Zr285       O287   2.436       .  S
Zr285       O309   2.439       .  S
Zr285       O311   2.448       .  S
Zr285       O289   2.399       .  S
Zr285       O292   2.391       .  S
Zr286       O312   2.435       .  S
Zr286       O313   2.436       .  S
Zr286       O288   2.440       .  S
Zr286       O289   2.392       .  S
Zr286       O290   2.382       .  S
O287        H324   0.990       .  S
O288        H319   0.991       .  S
O288        H333   0.990       .  S
O290        H316   0.966       .  S
O291       Zr301   2.388       .  S
O292       Zr301   2.381       .  S
O292        H317   0.965       .  S
C293       C1411   1.487   1_554  S
C294       C1135   1.470   1_554  S
C295       C1150   1.474   1_554  S
O296        H332   0.989       .  S
O297        C299   1.288       .  A
O298        C299   1.284       .  A
C299       C1291   1.487       .  S
O300       Zr301   2.438       .  S
O300        H329   0.990       .  S
Zr301       O304   2.438       .  S
Zr301       O305   2.442       .  S
Zr301       O306   2.393       .  S
O302        C307   1.284       .  A
O303        H320   0.991       .  S
O303        H335   0.990       .  S
O304        H321   0.990       .  S
O305        H325   0.990       .  S
O305        H334   0.990       .  S
O306        C307   1.276       .  A
C307       C1159   1.481       .  S
O308        H327   0.988       .  S
O308        H331   0.989       .  S
O309        H323   0.990       .  S
O309        H330   0.990       .  S
O310        C314   1.284       .  A
O311        C314   1.286       .  A
O312        H322   0.990       .  S
O313        H326   0.990       .  S
C314       C1219   1.496       .  S
Zr337       O338   2.444       .  S
Zr337       O339   2.444       .  S
Zr337       O340   2.445       .  S
Zr337       O343   2.437       .  S
Zr337       O345   2.375       .  S
Zr337       O346   2.385       .  S
Zr337       O347   2.419       .  S
Zr337       O348   2.403       .  S
O338        H394   0.991       .  S
O338        H402   0.989       .  S
O339        C359   1.285       .  A
O340        C361   1.285       .  A
O341       Zr351   2.441       .  S
O341        C360   1.286       .  A
O342       Zr350   2.432       .  S
O342        C361   1.283       .  A
O343        C360   1.285       .  A
O344       Zr352   2.400       .  S
O344        C359   1.277       .  A
O345       Zr350   2.395       .  S
O345       Zr352   2.385       .  S
O346       Zr351   2.389       .  S
O346       Zr352   2.388       .  S
O346        H381   0.967       .  S
O347       Zr350   2.397       .  S
O347       Zr367   2.396       .  S
O347        H384   0.964       .  S
O348       Zr351   2.384       .  S
O348       Zr367   2.393       .  S
Zr349       O374   2.442       .  S
Zr349       O368   2.453       .  S
Zr349       O376   2.428       .  S
Zr349       O364   2.434       .  S
Zr349       O355   2.402       .  S
Zr349       O356   2.408       .  S
Zr349       O357   2.380       .  S
Zr349       O358   2.385       .  S
Zr350       O369   2.436       .  S
Zr350       O362   2.436       .  S
Zr350       O363   2.418       .  S
Zr350       O356   2.403       .  S
Zr350       O357   2.403       .  S
Zr351       O353   2.435       .  S
Zr351       O375   2.439       .  S
Zr351       O377   2.423       .  S
Zr351       O355   2.390       .  S
Zr351       O358   2.404       .  S
Zr352       O378   2.435       .  S
Zr352       O379   2.436       .  S
Zr352       O354   2.435       .  S
Zr352       O355   2.384       .  S
Zr352       O356   2.379       .  S
O353        H390   0.991       .  S
O354        H385   0.990       .  S
O354        H399   0.990       .  S
O356        H382   0.964       .  S
O357       Zr367   2.378       .  S
O358       Zr367   2.375       .  S
O358        H383   0.969       .  S
C359       C1111   1.481       .  S
C360       C1258   1.490       .  S
C361       C1231   1.481       .  S
O362        H398   0.990       .  S
O363        C365   1.282       .  A
O364        C365   1.283       .  A
C365       C1099   1.466       .  S
O366       Zr367   2.437       .  S
O366        H395   0.990       .  S
Zr367       O370   2.437       .  S
Zr367       O371   2.437       .  S
Zr367       O372   2.425       .  S
O368        C373   1.286       .  A
O369        H386   0.990       .  S
O369        H401   0.990       .  S
O370        H387   0.989       .  S
O371        H391   0.989       .  S
O371        H400   0.990       .  S
O372        C373   1.283       .  A
C373       C1486   1.500       .  S
O374        H393   0.990       .  S
O374        H397   0.990       .  S
O375        H389   0.989       .  S
O375        H396   0.990       .  S
O376        C380   1.284       .  A
O377        C380   1.284       .  A
O378        H388   0.990       .  S
O379        H392   0.991       .  S
C380       C1126   1.472       .  S
Zr403       O404   2.443       .  S
Zr403       O405   2.445       .  S
Zr403       O406   2.435       .  S
Zr403       O409   2.421       .  S
Zr403       O411   2.383       .  S
Zr403       O412   2.386       .  S
Zr403       O413   2.405       .  S
Zr403       O414   2.402       .  S
O404        H460   0.990       .  S
O404        H468   0.991       .  S
O405        C425   1.284       .  A
O406        C427   1.283       .  A
O407       Zr417   2.421       .  S
O407        C426   1.283       .  A
O408       Zr416   2.436       .  S
O408        C427   1.286       .  A
O409        C426   1.282       .  A
O410       Zr418   2.407       .  S
O410        C425   1.281       .  A
O411       Zr416   2.400       .  S
O411       Zr418   2.379       .  S
O412       Zr417   2.393       .  S
O412       Zr418   2.370       .  S
O412        H447   0.968       .  S
O413       Zr416   2.398       .  S
O413       Zr433   2.382       .  S
O413        H450   0.965       .  S
O414       Zr417   2.391       .  S
O414       Zr433   2.385       .  S
Zr415       O440   2.446       .  S
Zr415       O434   2.437       .  S
Zr415       O442   2.441       .  S
Zr415       O430   2.441       .  S
Zr415       O421   2.398       .  S
Zr415       O422   2.412       .  S
Zr415       O423   2.385       .  S
Zr415       O424   2.380       .  S
Zr416       O435   2.432       .  S
Zr416       O428   2.435       .  S
Zr416       O429   2.437       .  S
Zr416       O422   2.405       .  S
Zr416       O423   2.396       .  S
Zr417       O419   2.432       .  S
Zr417       O441   2.438       .  S
Zr417       O443   2.434       .  S
Zr417       O421   2.387       .  S
Zr417       O424   2.386       .  S
Zr418       O444   2.437       .  S
Zr418       O445   2.437       .  S
Zr418       O420   2.436       .  S
Zr418       O421   2.390       .  S
Zr418       O422   2.384       .  S
O419        H456   0.990       .  S
O420        H451   0.990       .  S
O420        H465   0.990       .  S
O422        H448   0.965       .  S
O423       Zr433   2.389       .  S
O424       Zr433   2.387       .  S
O424        H449   0.968       .  S
C425       C1471   1.499       .  S
C426       C1087   1.467       .  S
C427       C1075   1.481       .  S
O428        H464   0.990       .  S
O429        C431   1.285       .  A
O430        C431   1.285       .  A
C431       C1375   1.485       .  S
O432       Zr433   2.442       .  S
O432        H461   0.990       .  S
Zr433       O436   2.439       .  S
Zr433       O437   2.441       .  S
Zr433       O438   2.395       .  S
O434        C439   1.284       .  A
O435        H452   0.990       .  S
O435        H467   0.990       .  S
O436        H453   0.989       .  S
O437        H457   0.990       .  S
O437        H466   0.989       .  S
O438        C439   1.276       .  A
C439       C1063   1.464       .  S
O440        H459   0.991       .  S
O440        H463   0.991       .  S
O441        H455   0.990       .  S
O441        H462   0.990       .  S
O442        C446   1.286       .  A
O443        C446   1.284       .  A
O444        H454   0.990       .  S
O445        H458   0.990       .  S
C446       C1207   1.493       .  S
Zr469       O470   2.441       .  S
Zr469       O471   2.432       .  S
Zr469       O472   2.446       .  S
Zr469       O475   2.430       .  S
Zr469       O477   2.375       .  S
Zr469       O478   2.384       .  S
Zr469       O479   2.410       .  S
Zr469       O480   2.397       .  S
O470        H526   0.990       .  S
O470        H534   0.988       .  S
O471        C491   1.283       .  A
O472        C493   1.286       .  A
O473       Zr483   2.449       .  S
O473        C492   1.288       .  A
O474       Zr482   2.458       .  S
O474        C493   1.288       .  A
O475        C492   1.284       .  A
O476       Zr484   2.400       .  S
O476        C491   1.277       .  A
O477       Zr482   2.396       .  S
O477       Zr484   2.386       .  S
O478       Zr483   2.397       .  S
O478       Zr484   2.385       .  S
O478        H513   0.964       .  S
O479       Zr482   2.391       .  S
O479       Zr499   2.393       .  S
O479        H516   0.964       .  S
O480       Zr483   2.379       .  S
O480       Zr499   2.389       .  S
Zr481       O506   2.443   1_554  S
Zr481       O500   2.433   1_554  S
Zr481       O508   2.438   1_554  S
Zr481       O496   2.436   1_554  S
Zr481       O487   2.399       .  S
Zr481       O488   2.407       .  S
Zr481       O489   2.388       .  S
Zr481       O490   2.381       .  S
Zr482       O501   2.440       .  S
Zr482       O494   2.434       .  S
Zr482       O495   2.427       .  S
Zr482       O488   2.409       .  S
Zr482       O489   2.399       .  S
Zr483       O485   2.437       .  S
Zr483       O507   2.438       .  S
Zr483       O509   2.433       .  S
Zr483       O487   2.394       .  S
Zr483       O490   2.397       .  S
Zr484       O510   2.435       .  S
Zr484       O511   2.436       .  S
Zr484       O486   2.437       .  S
Zr484       O487   2.386       .  S
Zr484       O488   2.371       .  S
O485        H522   0.990       .  S
O486        H517   0.990       .  S
O486        H531   0.990       .  S
O488        H514   0.963       .  S
O489       Zr499   2.374       .  S
O490       Zr499   2.380       .  S
O490        H515   0.967       .  S
C491       C1051   1.471       .  S
C492       C1270   1.494       .  S
C493       C1339   1.499       .  S
O494        H530   0.990       .  S
O495        C497   1.286       .  A
O496        C497   1.284   1_556  A
C497       C1027   1.478   1_554  S
O498       Zr499   2.435       .  S
O498        H527   0.990       .  S
Zr499       O502   2.434       .  S
Zr499       O503   2.439       .  S
Zr499       O504   2.419       .  S
O500        C505   1.282   1_556  A
O501        H518   0.990       .  S
O501        H533   0.990       .  S
O502        H519   0.990       .  S
O503        H523   0.990       .  S
O503        H532   0.989       .  S
O504        C505   1.282       .  A
C505       C1423   1.474   1_554  S
O506        H525   0.990       .  S
O506        H529   0.990       .  S
O507        H521   0.990       .  S
O507        H528   0.989       .  S
O508        C512   1.286       .  A
O509        C512   1.284   1_554  A
O510        H520   0.990       .  S
O511        H524   0.990       .  S
C512       C1039   1.481       .  S
Zr535       O536   2.441       .  S
Zr535       O537   2.452       .  S
Zr535       O538   2.435       .  S
Zr535       O541   2.429       .  S
Zr535       O543   2.381       .  S
Zr535       O544   2.381       .  S
Zr535       O545   2.407       .  S
Zr535       O546   2.402       .  S
O536        H592   0.990       .  S
O536        H600   0.991       .  S
O537        C557   1.287       .  A
O538        C559   1.282       .  A
O539       Zr549   2.435       .  S
O539        C558   1.286       .  A
O540       Zr548   2.422       .  S
O540        C559   1.282       .  A
O541        C558   1.283       .  A
O542       Zr550   2.408       .  S
O542        C557   1.279       .  A
O543       Zr548   2.401       .  S
O543       Zr550   2.378       .  S
O544       Zr549   2.399       .  S
O544       Zr550   2.377       .  S
O544        H579   0.966       .  S
O545       Zr548   2.404       .  S
O545       Zr565   2.386       .  S
O545        H582   0.962       .  S
O546       Zr549   2.393       .  S
O546       Zr565   2.385       .  S
Zr547       O572   2.444       .  S
Zr547       O566   2.417       .  S
Zr547       O574   2.420       .  S
Zr547       O562   2.423       .  S
Zr547       O553   2.393       .  S
Zr547       O554   2.400       .  S
Zr547       O555   2.375       .  S
Zr547       O556   2.378       .  S
Zr548       O567   2.436       .  S
Zr548       O560   2.437       .  S
Zr548       O561   2.443       .  S
Zr548       O554   2.400       .  S
Zr548       O555   2.392       .  S
Zr549       O551   2.435       .  S
Zr549       O573   2.437       .  S
Zr549       O575   2.452       .  S
Zr549       O553   2.389       .  S
Zr549       O556   2.393       .  S
Zr550       O576   2.435       .  S
Zr550       O577   2.435       .  S
Zr550       O552   2.432       .  S
Zr550       O553   2.387       .  S
Zr550       O554   2.387       .  S
O551        H588   0.990       .  S
O552        H583   0.990       .  S
O552        H597   0.990       .  S
O554        H580   0.965       .  S
O555       Zr565   2.380       .  S
O556       Zr565   2.383       .  S
O556        H581   0.966       .  S
C557       C1450   1.491       .  S
C558       C1006   1.477       .  S
C559        C991   1.465       .  S
O560        H596   0.990       .  S
O561        C563   1.285       .  A
O562        C563   1.282       .  A
C563       C1279   1.490       .  S
O564       Zr565   2.438       .  S
O564        H593   0.990       .  S
Zr565       O568   2.436       .  S
Zr565       O569   2.441       .  S
Zr565       O570   2.400       .  S
O566        C571   1.280       .  A
O567        H584   0.991       .  S
O567        H599   0.989       .  S
O568        H585   0.990       .  S
O569        H589   0.990       .  S
O569        H598   0.990       .  S
O570        C571   1.277       .  A
C571       C1015   1.477       .  S
O572        H591   0.990       .  S
O572        H595   0.990       .  S
O573        H587   0.990       .  S
O573        H594   0.990       .  S
O574        C578   1.282       .  A
O575        C578   1.288       .  A
O576        H586   0.990       .  S
O577        H590   0.990       .  S
C578       C1306   1.487       .  S
Zr601       O602   2.443       .  S
Zr601       O603   2.427       .  S
Zr601       O604   2.438       .  S
Zr601       O607   2.422       .  S
Zr601       O609   2.379       .  S
Zr601       O610   2.379       .  S
Zr601       O611   2.410       .  S
Zr601       O612   2.399       .  S
O602        H658   0.990       .  S
O602        H666   0.988       .  S
O603        C623   1.281       .  A
O604        C625   1.285       .  A
O605       Zr615   2.433       .  S
O605        C624   1.283       .  A
O606       Zr614   2.437       .  S
O606        C625   1.285       .  A
O607        C624   1.283       .  A
O608       Zr616   2.407       .  S
O608        C623   1.278       .  A
O609       Zr614   2.400       .  S
O609       Zr616   2.389       .  S
O610       Zr615   2.385       .  S
O610       Zr616   2.370       .  S
O610        H645   0.962       .  S
O611       Zr614   2.394       .  S
O611       Zr631   2.390       .  S
O611        H648   0.964       .  S
O612       Zr615   2.389       .  S
O612       Zr631   2.390       .  S
Zr613       O638   2.444   1_554  S
Zr613       O632   2.454       .  S
Zr613       O640   2.443   1_554  S
Zr613       O628   2.435   1_554  S
Zr613       O619   2.408       .  S
Zr613       O620   2.415       .  S
Zr613       O621   2.384       .  S
Zr613       O622   2.386       .  S
Zr614       O633   2.437       .  S
Zr614       O626   2.430       .  S
Zr614       O627   2.432       .  S
Zr614       O620   2.404       .  S
Zr614       O621   2.397       .  S
Zr615       O617   2.432       .  S
Zr615       O639   2.437       .  S
Zr615       O641   2.417       .  S
Zr615       O619   2.396       .  S
Zr615       O622   2.401       .  S
Zr616       O642   2.435       .  S
Zr616       O643   2.436       .  S
Zr616       O618   2.440       .  S
Zr616       O619   2.391       .  S
Zr616       O620   2.381       .  S
O617        H654   0.990       .  S
O618        H649   0.989       .  S
O618        H663   0.990       .  S
O620        H646   0.966       .  S
O621       Zr631   2.385       .  S
O622       Zr631   2.380       .  S
O622        H647   0.968       .  S
C623        C979   1.472       .  S
C624       C1315   1.482       .  S
C625       C1387   1.485       .  S
O626        H662   0.990       .  S
O627        C629   1.286       .  A
O628        C629   1.284   1_556  A
C629        C958   1.471   1_554  S
O630       Zr631   2.439       .  S
O630        H659   0.990       .  S
Zr631       O634   2.438       .  S
Zr631       O635   2.434       .  S
Zr631       O636   2.412       .  S
O632        C637   1.286       .  A
O633        H650   0.990       .  S
O633        H665   0.991       .  S
O634        H651   0.990       .  S
O635        H655   0.990       .  S
O635        H664   0.990       .  S
O636        C637   1.280       .  A
C637       C1399   1.492   1_554  S
O638        H657   0.991       .  S
O638        H661   0.990       .  S
O639        H653   0.990       .  S
O639        H660   0.989       .  S
O640        C644   1.285   1_556  A
O641        C644   1.282       .  A
O642        H652   0.990       .  S
O643        H656   0.990       .  S
C644        C967   1.480   1_554  S
Zr667       O668   2.431       .  S
Zr667       O669   2.452       .  S
Zr667       O670   2.468       .  S
Zr667       O673   2.432       .  S
Zr667       O675   2.380       .  S
Zr667       O676   2.392       .  S
Zr667       O677   2.409       .  S
Zr667       O678   2.400       .  S
O668        H724   0.989       .  S
O668        H732   0.990       .  S
O669        C689   1.286       .  A
O670        C691   1.289       .  A
O671       Zr681   2.425       .  S
O671        C690   1.285       .  A
O672       Zr680   2.410       .  S
O672        C691   1.283       .  A
O673        C690   1.284       .  A
O674       Zr682   2.422       .  S
O674        C689   1.283       .  A
O675       Zr680   2.400       .  S
O675       Zr682   2.377       .  S
O676       Zr681   2.400       .  S
O676       Zr682   2.378       .  S
O676        H711   0.968       .  S
O677       Zr680   2.404       .  S
O677       Zr697   2.380       .  S
O677        H714   0.961       .  S
O678       Zr681   2.390       .  S
O678       Zr697   2.377       .  S
Zr679       O704   2.442       .  S
Zr679       O698   2.436       .  S
Zr679       O706   2.421       .  S
Zr679       O694   2.436       .  S
Zr679       O685   2.403       .  S
Zr679       O686   2.400       .  S
Zr679       O687   2.375       .  S
Zr679       O688   2.381       .  S
Zr680       O699   2.436       .  S
Zr680       O692   2.433       .  S
Zr680       O693   2.442       .  S
Zr680       O686   2.392       .  S
Zr680       O687   2.389       .  S
Zr681       O683   2.437       .  S
Zr681       O705   2.435       .  S
Zr681       O707   2.447       .  S
Zr681       O685   2.389       .  S
Zr681       O688   2.390       .  S
Zr682       O708   2.435       .  S
Zr682       O709   2.437       .  S
Zr682       O684   2.441       .  S
Zr682       O685   2.401       .  S
Zr682       O686   2.387       .  S
O683        H720   0.990       .  S
O684        H715   0.990       .  S
O684        H729   0.990       .  S
O686        H712   0.967       .  S
O687       Zr697   2.386       .  S
O688       Zr697   2.382       .  S
O688        H713   0.968       .  S
C689       C1459   1.500       .  S
C690        C919   1.480       .  S
C691        C943   1.499       .  S
O692        H728   0.990       .  S
O693        C695   1.285       .  A
O694        C695   1.284       .  A
C695       C1327   1.492       .  S
O696       Zr697   2.440       .  S
O696        H725   0.990       .  S
Zr697       O700   2.439       .  S
Zr697       O701   2.438       .  S
Zr697       O702   2.391       .  S
O698        C703   1.285       .  A
O699        H716   0.990       .  S
O699        H731   0.990       .  S
O700        H717   0.990       .  S
O701        H721   0.989       .  S
O701        H730   0.990       .  S
O702        C703   1.276       .  A
C703        C934   1.467       .  S
O704        H723   0.991       .  S
O704        H727   0.990       .  S
O705        H719   0.990       .  S
O705        H726   0.990       .  S
O706        C710   1.282       .  A
O707        C710   1.287       .  A
O708        H718   0.990       .  S
O709        H722   0.990       .  S
C710       C1354   1.486       .  S
O733       Zr745   2.427       .  S
O733        C735   1.285       .  A
O734       Zr771   2.418   1_545  S
O734        C735   1.285       .  A
C735        C982   1.469       .  S
O736       Zr748   2.428       .  S
O736        C738   1.285       .  A
O737       Zr772   2.410   1_445  S
O737        C738   1.284       .  A
C738       C1066   1.462       .  S
O739       Zr748   2.413       .  S
O739        C741   1.283       .  A
O740       Zr771   2.414   1_445  S
O740        C741   1.285       .  A
C741       C1195   1.465       .  S
O742       Zr745   2.417       .  S
O742        C744   1.283       .  A
O743       Zr772   2.429   1_545  S
O743        C744   1.287       .  A
C744        C931   1.467       .  S
Zr745       O746   2.430       .  S
Zr745       O747   2.433       .  S
Zr745       O751   2.364       .  S
Zr745       O752   2.365       .  S
Zr745       O775   2.369   1_545  S
Zr745       O777   2.361   1_545  S
O746        H789   0.990       .  S
O747        H788   0.990       .  S
O747        H792   0.990       .  S
Zr748       O749   2.435       .  S
Zr748       O750   2.434       .  S
Zr748       O752   2.352   1_455  S
Zr748       O751   2.366   1_455  S
Zr748       O776   2.372       .  S
Zr748       O778   2.367       .  S
O749        H790   0.990       .  S
O749        H793   0.990       .  S
O750        H783   0.990       .  S
O751       Zr771   2.382   1_545  S
O752       Zr772   2.385   1_545  S
O752        H779   0.965       .  S
O753       Zr765   2.409       .  S
O753        C755   1.283       .  A
O754       Zr772   2.424       .  S
O754        C755   1.286       .  A
C755       C1018   1.482       .  S
O756       Zr768   2.418       .  S
O756        C758   1.285       .  A
O757       Zr771   2.420   1_455  S
O757        C758   1.285       .  A
C758       C1162   1.481       .  S
O759       Zr768   2.431       .  S
O759        C761   1.286       .  A
O760       Zr772   2.434   1_455  S
O760        C761   1.289       .  A
C761       C1114   1.485       .  S
O762       Zr765   2.420       .  S
O762        C764   1.284       .  A
O763       Zr771   2.418       .  S
O763        C764   1.285       .  A
C764       C1054   1.464       .  S
Zr765       O766   2.435       .  S
Zr765       O767   2.431       .  S
Zr765       O773   2.365       .  S
Zr765       O774   2.363       .  S
Zr765       O777   2.366       .  S
Zr765       O775   2.367       .  S
O766        H786   0.990       .  S
O766        H791   0.990       .  S
O767        H787   0.989       .  S
Zr768       O769   2.433       .  S
Zr768       O770   2.428       .  S
Zr768       O774   2.366   1_455  S
Zr768       O773   2.364   1_455  S
Zr768       O778   2.366   1_565  S
Zr768       O776   2.361   1_565  S
O769        H785   0.990       .  S
O770        H784   0.989       .  S
O770        H794   0.990       .  S
Zr771       O774   2.378       .  S
Zr771       O776   2.386   1_665  S
Zr771       O777   2.384       .  S
Zr772       O773   2.380       .  S
Zr772       O775   2.384       .  S
Zr772       O778   2.381   1_665  S
O773        H781   0.964       .  S
O776        H780   0.961       .  S
O777        H782   0.966       .  S
O795       Zr807   2.406       .  S
O795        C797   1.282       .  A
O796       Zr833   2.448       .  S
O796        C797   1.290       .  A
C797       C1147   1.474       .  S
O798       Zr810   2.409       .  S
O798        C800   1.282       .  A
O799       Zr834   2.439   1_545  S
O799        C800   1.288       .  A
C800        C955   1.463       .  S
O801       Zr810   2.418       .  S
O801        C803   1.284       .  A
O802       Zr833   2.416   1_545  S
O802        C803   1.284       .  A
C803       C1183   1.463       .  S
O804       Zr807   2.412       .  S
O804        C806   1.281       .  A
O805       Zr834   2.448       .  S
O805        C806   1.291       .  A
C806       C1042   1.474       .  S
Zr807       O808   2.434       .  S
Zr807       O809   2.434       .  S
Zr807       O813   2.369       .  S
Zr807       O814   2.370       .  S
Zr807       O837   2.357       .  S
Zr807       O839   2.362       .  S
O808        H851   0.990       .  S
O809        H850   0.989       .  S
O809        H854   0.990       .  S
Zr810       O811   2.433       .  S
Zr810       O812   2.436       .  S
Zr810       O814   2.371   1_545  S
Zr810       O813   2.361   1_545  S
Zr810       O838   2.363       .  S
Zr810       O840   2.361       .  S
O811        H852   0.990       .  S
O811        H855   0.990       .  S
O812        H845   0.990       .  S
O813       Zr833   2.382       .  S
O814       Zr834   2.388       .  S
O814        H841   0.966       .  S
O815       Zr827   2.424       .  S
O815        C817   1.285       .  A
O816       Zr834   2.432       .  S
O816        C817   1.288       .  A
C817        C994   1.476       .  S
O818       Zr830   2.431       .  S
O818        C820   1.286       .  A
O819       Zr833   2.434   1_545  S
O819        C820   1.287       .  A
C820       C1078   1.470       .  S
O821       Zr830   2.423       .  S
O821        C823   1.284       .  A
O822       Zr834   2.429   1_545  S
O822        C823   1.287       .  A
C823        C922   1.465       .  S
O824       Zr827   2.428       .  S
O824        C826   1.285       .  A
O825       Zr833   2.409       .  S
O825        C826   1.282       .  A
C826       C1123   1.458       .  S
Zr827       O828   2.435       .  S
Zr827       O829   2.436       .  S
Zr827       O835   2.365   1_565  S
Zr827       O836   2.360   1_565  S
Zr827       O839   2.368       .  S
Zr827       O837   2.370       .  S
O828        H848   0.990       .  S
O828        H853   0.990       .  S
O829        H849   0.990       .  S
Zr830       O831   2.436       .  S
Zr830       O832   2.434       .  S
Zr830       O836   2.369       .  S
Zr830       O835   2.376       .  S
Zr830       O840   2.358       .  S
Zr830       O838   2.364       .  S
O831        H847   0.990       .  S
O832        H846   0.990       .  S
O832        H856   0.990       .  S
Zr833       O836   2.389   1_565  S
Zr833       O838   2.386   1_565  S
Zr833       O839   2.389       .  S
Zr834       O835   2.399   1_565  S
Zr834       O837   2.384       .  S
Zr834       O840   2.383   1_565  S
O835        H843   0.968       .  S
O838        H842   0.967       .  S
O839        H844   0.966       .  S
O857       Zr869   2.406       .  S
O857        C859   1.281       .  A
O858       Zr895   2.459       .  S
O858        C859   1.292       .  A
C859       C1171   1.480       .  S
O860       Zr872   2.420       .  S
O860        C862   1.283       .  A
O861       Zr896   2.429   1_655  S
O861        C862   1.287       .  A
C862       C1030   1.463       .  S
O863       Zr872   2.440       .  S
O863        C865   1.287       .  A
O864       Zr895   2.428   1_655  S
O864        C865   1.286       .  A
C865        C970   1.471       .  S
O866       Zr869   2.423       .  S
O866        C868   1.285       .  A
O867       Zr896   2.434       .  S
O867        C868   1.288       .  A
C868       C1138   1.476       .  S
Zr869       O870   2.435       .  S
Zr869       O871   2.434       .  S
Zr869       O875   2.376       .  S
Zr869       O876   2.360       .  S
Zr869       O899   2.357       .  S
Zr869       O901   2.368       .  S
O870        H913   0.990       .  S
O871        H912   0.990       .  S
O871        H916   0.990       .  S
Zr872       O873   2.435       .  S
Zr872       O874   2.433       .  S
Zr872       O876   2.372   1_655  S
Zr872       O875   2.368   1_655  S
Zr872       O900   2.363       .  S
Zr872       O902   2.365       .  S
O873        H914   0.990       .  S
O873        H917   0.990       .  S
O874        H907   0.990       .  S
O875       Zr895   2.389       .  S
O876       Zr896   2.388       .  S
O876        H903   0.969       .  S
O877       Zr889   2.419       .  S
O877        C879   1.284       .  A
O878       Zr896   2.437       .  S
O878        C879   1.289       .  A
C879       C1102   1.472       .  S
O880       Zr892   2.409       .  S
O880        C882   1.282       .  A
O881       Zr895   2.444   1_655  S
O881        C882   1.289       .  A
C882        C946   1.466       .  S
O883       Zr892   2.436       .  S
O883        C885   1.287       .  A
O884       Zr896   2.424   1_655  S
O884        C885   1.285       .  A
C885       C1003   1.470       .  S
O886       Zr889   2.433       .  S
O886        C888   1.286       .  A
O887       Zr895   2.424       .  S
O887        C888   1.286       .  A
C888       C1090   1.469       .  S
Zr889       O890   2.437       .  S
Zr889       O891   2.433       .  S
Zr889       O897   2.369       .  S
Zr889       O898   2.360       .  S
Zr889       O901   2.360       .  S
Zr889       O899   2.366       .  S
O890        H910   0.990       .  S
O890        H915   0.990       .  S
O891        H911   0.990       .  S
Zr892       O893   2.436       .  S
Zr892       O894   2.436       .  S
Zr892       O898   2.371   1_655  S
Zr892       O897   2.365   1_655  S
Zr892       O902   2.355       .  S
Zr892       O900   2.371       .  S
O893        H909   0.990       .  S
O894        H908   0.990       .  S
O894        H918   0.990       .  S
Zr895       O898   2.393       .  S
Zr895       O900   2.394   1_455  S
Zr895       O901   2.389       .  S
Zr896       O897   2.392       .  S
Zr896       O899   2.377       .  S
Zr896       O902   2.384   1_455  S
O897        H905   0.968       .  S
O900        H904   0.967       .  S
O901        H906   0.966       .  S
C919        C920   1.407       .  A
C919        C924   1.415       .  A
C920        C921   1.398       .  A
C920        H925   1.085       .  S
C921        C922   1.405       .  A
C921        C928   1.444       .  S
C922        C923   1.400       .  A
C923        C924   1.399       .  A
C923        H926   1.082       .  S
C924        C927   1.445       .  S
C927        N929   1.157       .  T
C928        N930   1.157       .  T
C931        C932   1.400       .  A
C931        C936   1.414       .  A
C932        C933   1.398       .  A
C932        H937   1.085       .  S
C933        C934   1.414       .  A
C933        C940   1.444       .  S
C934        C935   1.398       .  A
C935        C936   1.392       .  A
C935        H938   1.085       .  S
C936        C939   1.445       .  S
C939        N941   1.157       .  T
C940        N942   1.157       .  T
C943        C944   1.413       .  A
C943        C948   1.423       .  A
C944        C945   1.392       .  A
C944        H949   1.084       .  S
C945        C946   1.404       .  A
C945        C952   1.447       .  S
C946        C947   1.398       .  A
C947        C948   1.406       .  A
C947        H950   1.085       .  S
C948        C951   1.440       .  S
C951        N953   1.157       .  T
C952        N954   1.157       .  T
C955        C956   1.398       .  A
C955        C960   1.411       .  A
C956        C957   1.397       .  A
C956        H961   1.085       .  S
C957        C958   1.414       .  A
C957        C964   1.444   1_556  S
C958        C959   1.401       .  A
C959        C960   1.397       .  A
C959        H962   1.085       .  S
C960        C963   1.443       .  S
C963        N965   1.157       .  T
C964        N966   1.157       .  T
C967        C968   1.405       .  A
C967        C972   1.416       .  A
C968        C969   1.401       .  A
C968        H973   1.085       .  S
C969        C970   1.409       .  A
C969        C976   1.444       .  S
C970        C971   1.399       .  A
C971        C972   1.400       .  A
C971        H974   1.084       .  S
C972        C975   1.444   1_556  S
C975        N977   1.157       .  T
C976        N978   1.157       .  T
C979        C980   1.404       .  A
C979        C984   1.412       .  A
C980        C981   1.399       .  A
C980        H985   1.085       .  S
C981        C982   1.409       .  A
C981        C988   1.444       .  S
C982        C983   1.403       .  A
C983        C984   1.396       .  A
C983        H986   1.085       .  S
C984        C987   1.446       .  S
C987        N989   1.158       .  T
C988        N990   1.157   1_545  T
C991        C992   1.396       .  A
C991        C996   1.409       .  A
C992        C993   1.396       .  A
C992        H997   1.085       .  S
C993        C994   1.417       .  A
C993       C1000   1.445       .  S
C994        C995   1.403       .  A
C995        C996   1.401       .  A
C995        H998   1.084       .  S
C996        C999   1.444       .  S
C999       N1001   1.157       .  T
C1000      N1002   1.157       .  T
C1003      C1004   1.401       .  A
C1003      C1008   1.410       .  A
C1004      C1005   1.401       .  A
C1004      H1009   1.085       .  S
C1005      C1006   1.413       .  A
C1005      C1012   1.444       .  S
C1006      C1007   1.403       .  A
C1007      C1008   1.399       .  A
C1007      H1010   1.085       .  S
C1008      C1011   1.445       .  S
C1011      N1013   1.157       .  T
C1012      N1014   1.157       .  T
C1015      C1016   1.406       .  A
C1015      C1020   1.412       .  A
C1016      C1017   1.397       .  A
C1016      H1021   1.085       .  S
C1017      C1018   1.413       .  A
C1017      C1024   1.444       .  S
C1018      C1019   1.409       .  A
C1019      C1020   1.392       .  A
C1019      H1022   1.085       .  S
C1020      C1023   1.447       .  S
C1023      N1025   1.158       .  T
C1024      N1026   1.157       .  T
C1027      C1028   1.405       .  A
C1027      C1032   1.413       .  A
C1028      C1029   1.394       .  A
C1028      H1033   1.085   1_556  S
C1029      C1030   1.406       .  A
C1029      C1036   1.445       .  S
C1030      C1031   1.404       .  A
C1031      C1032   1.402       .  A
C1031      H1034   1.083       .  S
C1032      C1035   1.444       .  S
C1035      N1037   1.157       .  T
C1036      N1038   1.157       .  T
C1039      C1040   1.403       .  A
C1039      C1044   1.415       .  A
C1040      C1041   1.399       .  A
C1040      H1045   1.085       .  S
C1041      C1042   1.413       .  A
C1041      C1048   1.444       .  S
C1042      C1043   1.400       .  A
C1043      C1044   1.402       .  A
C1043      H1046   1.085       .  S
C1044      C1047   1.442       .  S
C1047      N1049   1.157   1_556  T
C1048      N1050   1.157       .  T
C1051      C1052   1.401       .  A
C1051      C1056   1.413       .  A
C1052      C1053   1.392       .  A
C1052      H1057   1.085       .  S
C1053      C1054   1.410       .  A
C1053      C1060   1.445       .  S
C1054      C1055   1.401       .  A
C1055      C1056   1.400       .  A
C1055      H1058   1.085       .  S
C1056      C1059   1.444       .  S
C1059      N1061   1.157       .  T
C1060      N1062   1.157       .  T
C1063      C1064   1.401       .  A
C1063      C1068   1.410       .  A
C1064      C1065   1.396       .  A
C1064      H1069   1.085       .  S
C1065      C1066   1.411       .  A
C1065      C1072   1.445       .  S
C1066      C1067   1.400       .  A
C1067      C1068   1.394       .  A
C1067      H1070   1.085       .  S
C1068      C1071   1.443       .  S
C1071      N1073   1.157       .  T
C1072      N1074   1.157       .  T
C1075      C1076   1.405       .  A
C1075      C1080   1.416       .  A
C1076      C1077   1.400       .  A
C1076      H1081   1.085       .  S
C1077      C1078   1.408       .  A
C1077      C1084   1.444       .  S
C1078      C1079   1.400       .  A
C1079      C1080   1.401       .  A
C1079      H1082   1.085       .  S
C1080      C1083   1.444       .  S
C1083      N1085   1.157       .  T
C1084      N1086   1.157       .  T
C1087      C1088   1.403       .  A
C1087      C1092   1.407       .  A
C1088      C1089   1.400       .  A
C1088      H1093   1.085       .  S
C1089      C1090   1.410       .  A
C1089      C1096   1.443       .  S
C1090      C1091   1.404       .  A
C1091      C1092   1.395       .  A
C1091      H1094   1.085       .  S
C1092      C1095   1.445       .  S
C1095      N1097   1.157       .  T
C1096      N1098   1.157       .  T
C1099      C1100   1.398       .  A
C1099      C1104   1.411       .  A
C1100      C1101   1.396       .  A
C1100      H1105   1.085       .  S
C1101      C1102   1.414       .  A
C1101      C1108   1.443       .  S
C1102      C1103   1.402       .  A
C1103      C1104   1.400       .  A
C1103      H1106   1.085       .  S
C1104      C1107   1.445       .  S
C1107      N1109   1.157       .  T
C1108      N1110   1.157       .  T
C1111      C1112   1.401       .  A
C1111      C1116   1.415       .  A
C1112      C1113   1.396       .  A
C1112      H1117   1.085       .  S
C1113      C1114   1.416       .  A
C1113      C1120   1.443       .  S
C1114      C1115   1.405       .  A
C1115      C1116   1.401       .  A
C1115      H1118   1.085       .  S
C1116      C1119   1.444       .  S
C1119      N1121   1.157       .  T
C1120      N1122   1.157       .  T
C1123      C1124   1.398       .  A
C1123      C1128   1.407       .  A
C1124      C1125   1.398       .  A
C1124      H1129   1.085       .  S
C1125      C1126   1.414       .  A
C1125      C1132   1.443       .  S
C1126      C1127   1.403       .  A
C1127      C1128   1.396       .  A
C1127      H1130   1.085       .  S
C1128      C1131   1.446       .  S
C1131      N1133   1.157       .  T
C1132      N1134   1.157       .  T
C1135      C1136   1.398       .  A
C1135      C1140   1.409       .  A
C1136      C1137   1.395       .  A
C1136      H1141   1.085       .  S
C1137      C1138   1.415       .  A
C1137      C1144   1.443       .  S
C1138      C1139   1.405       .  A
C1139      C1140   1.403       .  A
C1139      H1142   1.084       .  S
C1140      C1143   1.443       .  S
C1143      N1145   1.157   1_556  T
C1144      N1146   1.157       .  T
C1147      C1148   1.404       .  A
C1147      C1152   1.409       .  A
C1148      C1149   1.395       .  A
C1148      H1153   1.085       .  S
C1149      C1150   1.409       .  A
C1149      C1156   1.443       .  S
C1150      C1151   1.406       .  A
C1151      C1152   1.403       .  A
C1151      H1154   1.085       .  S
C1152      C1155   1.442       .  S
C1155      N1157   1.157       .  T
C1156      N1158   1.156       .  T
C1159      C1160   1.409       .  A
C1159      C1164   1.411       .  A
C1160      C1161   1.399       .  A
C1160      H1165   1.085       .  S
C1161      C1162   1.412       .  A
C1161      C1168   1.443       .  S
C1162      C1163   1.407       .  A
C1163      C1164   1.393       .  A
C1163      H1166   1.085       .  S
C1164      C1167   1.445       .  S
C1167      N1169   1.157       .  T
C1168      N1170   1.157       .  T
C1171      C1172   1.411       .  A
C1171      C1176   1.409       .  A
C1172      C1173   1.398       .  A
C1172      H1177   1.085       .  S
C1173      C1174   1.405       .  A
C1173      C1180   1.446       .  S
C1174      C1175   1.403       .  A
C1175      C1176   1.401       .  A
C1175      H1178   1.085       .  S
C1176      C1179   1.441       .  S
C1179      N1181   1.157       .  T
C1180      N1182   1.158       .  T
C1183      C1184   1.401       .  A
C1183      C1188   1.404       .  A
C1184      C1185   1.404       .  A
C1184      H1189   1.085       .  S
C1185      C1186   1.419       .  A
C1185      C1192   1.442       .  S
C1186      C1187   1.411       .  A
C1187      C1188   1.387       .  A
C1187      H1190   1.084   1_556  S
C1188      C1191   1.446       .  S
C1191      N1193   1.157   1_556  T
C1192      N1194   1.157       .  T
C1195      C1196   1.398       .  A
C1195      C1200   1.412       .  A
C1196      C1197   1.392       .  A
C1196      H1201   1.083       .  S
C1197      C1198   1.413       .  A
C1197      C1204   1.445       .  S
C1198      C1199   1.400       .  A
C1199      C1200   1.394       .  A
C1199      H1202   1.085       .  S
C1200      C1203   1.444       .  S
C1203      N1205   1.157       .  T
C1204      N1206   1.157       .  T
C1207      C1208   1.408       .  A
C1207      C1212   1.418       .  A
C1208      C1209   1.401       .  A
C1208      H1213   1.085       .  S
C1209      C1210   1.409       .  A
C1209      C1216   1.444       .  S
C1210      C1211   1.404       .  A
C1211      C1212   1.406       .  A
C1211      H1214   1.085       .  S
C1212      C1215   1.444       .  S
C1215      N1217   1.157       .  T
C1216      N1218   1.157       .  T
C1219      C1220   1.410       .  A
C1219      C1224   1.417       .  A
C1220      C1221   1.399       .  A
C1220      H1225   1.084       .  S
C1221      C1222   1.410       .  A
C1221      C1228   1.445       .  S
C1222      C1223   1.405       .  A
C1223      C1224   1.406       .  A
C1223      H1226   1.085       .  S
C1224      C1227   1.443       .  S
C1227      N1229   1.157       .  T
C1228      N1230   1.157       .  T
C1231      C1232   1.405       .  A
C1231      C1236   1.415       .  A
C1232      C1233   1.404       .  A
C1232      H1237   1.084       .  S
C1233      C1234   1.410       .  A
C1233      C1240   1.443       .  S
C1234      C1235   1.398       .  A
C1235      C1236   1.396       .  A
C1235      H1238   1.085       .  S
C1236      C1239   1.443       .  S
C1239      N1241   1.156       .  T
C1240      N1242   1.157       .  T
C1243      C1244   1.397       .  A
C1243      C1248   1.408       .  A
C1244      C1245   1.395       .  A
C1244      H1249   1.085       .  S
C1245      C1246   1.417       .  A
C1245      C1252   1.445       .  S
C1246      C1247   1.406       .  A
C1247      C1248   1.406       .  A
C1247      H1250   1.084       .  S
C1248      C1251   1.443       .  S
C1251      N1253   1.157       .  T
C1252      N1254   1.157       .  T
C1255      C1256   1.398       .  A
C1255      C1260   1.408       .  A
C1256      C1257   1.397       .  A
C1256      H1261   1.085       .  S
C1257      C1258   1.418       .  A
C1257      C1264   1.441       .  S
C1258      C1259   1.410       .  A
C1259      C1260   1.405       .  A
C1259      H1262   1.084       .  S
C1260      C1263   1.443       .  S
C1263      N1265   1.157       .  T
C1264      N1266   1.156       .  T
C1267      C1268   1.403       .  A
C1267      C1272   1.408       .  A
C1268      C1269   1.404       .  A
C1268      H1273   1.085       .  S
C1269      C1270   1.417       .  A
C1269      C1276   1.443       .  S
C1270      C1271   1.411       .  A
C1271      C1272   1.400       .  A
C1271      H1274   1.085       .  S
C1272      C1275   1.444       .  S
C1275      N1277   1.157       .  T
C1276      N1278   1.157       .  T
C1279      C1280   1.408       .  A
C1279      C1284   1.415       .  A
C1280      C1281   1.395       .  A
C1280      H1285   1.084       .  S
C1281      C1282   1.410       .  A
C1281      C1288   1.443       .  S
C1282      C1283   1.407       .  A
C1283      C1284   1.406       .  A
C1283      H1286   1.085       .  S
C1284      C1287   1.444       .  S
C1287      N1289   1.157       .  T
C1288      N1290   1.157       .  T
C1291      C1292   1.406       .  A
C1291      C1296   1.418       .  A
C1292      C1293   1.405       .  A
C1292      H1297   1.084       .  S
C1293      C1294   1.410       .  A
C1293      C1300   1.443       .  S
C1294      C1295   1.399       .  A
C1295      C1296   1.398       .  A
C1295      H1298   1.085       .  S
C1296      C1299   1.444       .  S
C1299      N1301   1.157       .  T
C1300      N1302   1.157       .  T
C1303      C1304   1.402       .  A
C1303      C1308   1.406       .  A
C1304      C1305   1.404       .  A
C1304      H1309   1.085       .  S
C1305      C1306   1.415       .  A
C1305      C1312   1.443       .  S
C1306      C1307   1.409       .  A
C1307      C1308   1.398       .  A
C1307      H1310   1.085       .  S
C1308      C1311   1.445       .  S
C1311      N1313   1.157       .  T
C1312      N1314   1.157       .  T
C1315      C1316   1.407       .  A
C1315      C1320   1.418       .  A
C1316      C1317   1.394       .  A
C1316      H1321   1.085       .  S
C1317      C1318   1.406       .  A
C1317      C1324   1.445       .  S
C1318      C1319   1.398       .  A
C1319      C1320   1.400       .  A
C1319      H1322   1.085       .  S
C1320      C1323   1.443       .  S
C1323      N1325   1.157       .  T
C1324      N1326   1.157       .  T
C1327      C1328   1.409       .  A
C1327      C1332   1.417       .  A
C1328      C1329   1.397       .  A
C1328      H1333   1.084       .  S
C1329      C1330   1.409       .  A
C1329      C1336   1.444       .  S
C1330      C1331   1.403       .  A
C1331      C1332   1.404       .  A
C1331      H1334   1.085       .  S
C1332      C1335   1.442       .  S
C1335      N1337   1.157       .  T
C1336      N1338   1.157       .  T
C1339      C1340   1.410       .  A
C1339      C1344   1.418       .  A
C1340      C1341   1.412       .  A
C1340      H1345   1.084       .  S
C1341      C1342   1.414       .  A
C1341      C1348   1.444       .  S
C1342      C1343   1.399       .  A
C1343      C1344   1.401       .  A
C1343      H1346   1.085       .  S
C1344      C1347   1.443       .  S
C1347      N1349   1.157       .  T
C1348      N1350   1.158       .  T
C1351      C1352   1.404       .  A
C1351      C1356   1.408       .  A
C1352      C1353   1.404       .  A
C1352      H1357   1.085       .  S
C1353      C1354   1.414       .  A
C1353      C1360   1.442       .  S
C1354      C1355   1.407       .  A
C1355      C1356   1.398       .  A
C1355      H1358   1.085       .  S
C1356      C1359   1.445       .  S
C1359      N1361   1.157       .  T
C1360      N1362   1.157       .  T
C1363      C1364   1.406       .  A
C1363      C1368   1.417       .  A
C1364      C1365   1.394       .  A
C1364      H1369   1.085       .  S
C1365      C1366   1.405       .  A
C1365      C1372   1.444       .  S
C1366      C1367   1.400       .  A
C1367      C1368   1.400       .  A
C1367      H1370   1.085       .  S
C1368      C1371   1.444       .  S
C1371      N1373   1.157       .  T
C1372      N1374   1.157       .  T
C1375      C1376   1.406       .  A
C1375      C1380   1.415       .  A
C1376      C1377   1.395       .  A
C1376      H1381   1.084       .  S
C1377      C1378   1.409       .  A
C1377      C1384   1.445       .  S
C1378      C1379   1.404       .  A
C1379      C1380   1.405       .  A
C1379      H1382   1.085       .  S
C1380      C1383   1.443       .  S
C1383      N1385   1.157       .  T
C1384      N1386   1.157       .  T
C1387      C1388   1.405       .  A
C1387      C1392   1.415       .  A
C1388      C1389   1.405       .  A
C1388      H1393   1.085       .  S
C1389      C1390   1.413       .  A
C1389      C1396   1.443       .  S
C1390      C1391   1.401       .  A
C1391      C1392   1.398       .  A
C1391      H1394   1.085       .  S
C1392      C1395   1.445       .  S
C1395      N1397   1.157       .  T
C1396      N1398   1.157       .  T
C1399      C1400   1.409       .  A
C1399      C1404   1.416       .  A
C1400      C1401   1.409       .  A
C1400      H1405   1.084       .  S
C1401      C1402   1.412       .  A
C1401      C1408   1.443       .  S
C1402      C1403   1.401       .  A
C1403      C1404   1.397       .  A
C1403      H1406   1.085       .  S
C1404      C1407   1.443   1_556  S
C1407      N1409   1.157       .  T
C1408      N1410   1.157       .  T
C1411      C1412   1.405       .  A
C1411      C1416   1.414   1_556  A
C1412      C1413   1.406       .  A
C1412      H1417   1.081       .  S
C1413      C1414   1.414       .  A
C1413      C1420   1.443       .  S
C1414      C1415   1.403       .  A
C1415      C1416   1.397   1_556  A
C1415      H1418   1.085       .  S
C1416      C1419   1.444       .  S
C1419      N1421   1.157       .  T
C1420      N1422   1.157       .  T
C1423      C1424   1.405       .  A
C1423      C1428   1.411       .  A
C1424      C1425   1.404       .  A
C1424      H1429   1.084       .  S
C1425      C1426   1.411       .  A
C1425      C1432   1.443       .  S
C1426      C1427   1.404       .  A
C1427      C1428   1.394       .  A
C1427      H1430   1.085       .  S
C1428      C1431   1.445   1_556  S
C1431      N1433   1.157       .  T
C1432      N1434   1.157       .  T
C1435      C1436   1.405       .  A
C1435      C1440   1.407       .  A
C1436      C1437   1.409       .  A
C1436      H1441   1.084       .  S
C1437      C1438   1.416       .  A
C1437      C1444   1.443       .  S
C1438      C1439   1.409   1_556  A
C1439      C1440   1.394   1_554  A
C1439      H1442   1.085       .  S
C1440      C1443   1.446   1_556  S
C1443      N1445   1.157       .  T
C1444      N1446   1.157       .  T
C1447      C1448   1.398       .  A
C1447      C1452   1.411       .  A
C1448      C1449   1.393       .  A
C1448      H1453   1.084       .  S
C1449      C1450   1.418       .  A
C1449      C1456   1.443       .  S
C1450      C1451   1.410       .  A
C1451      C1452   1.408       .  A
C1451      H1454   1.084       .  S
C1452      C1455   1.443       .  S
C1455      N1457   1.157       .  T
C1456      N1458   1.157       .  T
C1459      C1460   1.408       .  A
C1459      C1464   1.420       .  A
C1460      C1461   1.397       .  A
C1460      H1465   1.084       .  S
C1461      C1462   1.409       .  A
C1461      C1468   1.444       .  S
C1462      C1463   1.406       .  A
C1463      C1464   1.411       .  A
C1463      H1466   1.084       .  S
C1464      C1467   1.443       .  S
C1467      N1469   1.157       .  T
C1468      N1470   1.157       .  T
C1471      C1472   1.410       .  A
C1471      C1476   1.422       .  A
C1472      C1473   1.391       .  A
C1472      H1477   1.084       .  S
C1473      C1474   1.407       .  A
C1473      C1480   1.446       .  S
C1474      C1475   1.404       .  A
C1475      C1476   1.411       .  A
C1475      H1478   1.084       .  S
C1476      C1479   1.444       .  S
C1479      N1481   1.158       .  T
C1480      N1482   1.157       .  T
C1483      C1484   1.403       .  A
C1483      C1488   1.411       .  A
C1484      C1485   1.409       .  A
C1484      H1489   1.084       .  S
C1485      C1486   1.420       .  A
C1485      C1492   1.442       .  S
C1486      C1487   1.409       .  A
C1487      C1488   1.400       .  A
C1487      H1490   1.085       .  S
C1488      C1491   1.445       .  S
C1491      N1493   1.157       .  T
C1492      N1494   1.157       .  T
