geometry optimzed in LAMMPS
_audit_creation_date              2020-11-30 
_audit_creation_method            'lammps2cif' 
_symmetry_space_group_name_H-M    'P1' 
_symmetry_Int_Tables_number       1 
_symmetry_cell_setting            triclinic 
loop_ 
_symmetry_equiv_pos_as_xyz 
  x,y,z 
_cell_length_a                    36.60666524996137 
_cell_length_b                    39.35981246716961 
_cell_length_c                    39.878034745029616 
_cell_angle_alpha                 89.60055167801815 
_cell_angle_beta                  90.16463177904066 
_cell_angle_gamma                 88.5829986154377 
loop_ 
_atom_site_label 
_atom_site_type_symbol 
_atom_site_fract_x 
_atom_site_fract_y 
_atom_site_fract_z 
_atom_site_charge 
O1          O  0.53836139  0.42262822  0.45941108    -0.81170
O2          O  0.46993768  0.52858304  0.56439658    -0.65850
O3          O  0.48785179  0.46887483  0.48786763    -1.12460
C4          C  0.55381093  0.56291581  0.45390349     1.05720
O5          O  0.46209445  0.57490788  0.53336807    -0.79060
O6          O  0.44843365  0.55152472  0.46829440    -0.66640
Ni7        Ni  0.51047161  0.42607377  0.50019206     1.34870
C8          C  0.45058477  0.53168270  0.44288946     0.84460
O9          O  0.44041707  0.46480074  0.54079725    -0.79600
O10         O  0.48012388  0.42218954  0.53906338    -0.89880
C11         C  0.46743156  0.56111269  0.56197621     0.84030
O12         O  0.55074159  0.44756013  0.52518040    -0.68080
O13         O  0.52103430  0.57442678  0.45455078    -0.87370
C14         C  0.54687431  0.46540575  0.55177885     0.84860
C15         C  0.44691407  0.43255821  0.54005436     1.06430
H16         H  0.53263208  0.52981183  0.51858087     0.38230
O17         O  0.51087104  0.52718996  0.50519745    -1.10030
O18         O  0.48112399  0.51641548  0.43675704    -0.66680
Ni19       Ni  0.52100132  0.49875737  0.46652411     1.26350
O20         O  0.51594384  0.48002050  0.55724517    -0.66910
O21         O  0.55862297  0.53056616  0.45215505    -0.79200
C22         C  0.53102831  0.43550848  0.43067765     0.84250
O23         O  0.52751871  0.46791254  0.42798784    -0.66370
Ni24       Ni  0.49005604  0.57094647  0.49308711     1.27450
Ni25       Ni  0.47720983  0.49741757  0.52630502     1.26060
H26         H  0.46616860  0.46554888  0.47447975     0.38790
O27         O  0.47340424  0.20014698  0.16451196    -0.81170
O28         O  0.53728454  0.30716024  0.26965134    -0.65850
O29         O  0.52174205  0.22843232  0.21127867    -1.12460
C30         C  0.44986125  0.19580315  0.30311851     1.05720
O31         O  0.53670363  0.27766552  0.31731361    -0.79060
O32         O  0.55415103  0.21173732  0.29627898    -0.66640
Ni33       Ni  0.50219916  0.24029583  0.16773009     1.34870
C34         C  0.55383195  0.18488806  0.27829915     0.84460
O35         O  0.57023560  0.28131816  0.20647661    -0.79600
O36         O  0.53300837  0.27888036  0.16322675    -0.89880
C37         C  0.53557327  0.30606896  0.30204016     0.84030
O38         O  0.46124422  0.26732347  0.18675554    -0.68080
O39         O  0.48215213  0.19701258  0.31445051    -0.87370
C40         C  0.46422008  0.29392340  0.20493700     0.84860
C41         C  0.56557449  0.28062373  0.17424280     1.06430
H42         H  0.47286881  0.26203672  0.26836761     0.38230
O43         O  0.49478519  0.24789858  0.26745053    -1.10030
O44         O  0.52541419  0.17827140  0.26079100    -0.66680
Ni45       Ni  0.48639398  0.20790180  0.24023446     1.26350
O46         O  0.49428548  0.29938173  0.21984580    -0.66910
O47         O  0.44642095  0.19389958  0.27105157    -0.79200
C48         C  0.47924832  0.17090604  0.17763101     0.84250
O49         O  0.48174026  0.16844837  0.20979479    -0.66370
Ni50       Ni  0.51075995  0.23676545  0.31221373     1.27450
Ni51       Ni  0.53136320  0.26781335  0.23886101     1.26060
H52         H  0.54352655  0.21416886  0.20909171     0.38790
C53         C  0.78942733  0.74745901  0.77409360     0.02860
C54         C  0.80471168  0.75997112  0.74453806    -0.13290
C55         C  0.78873095  0.78894782  0.72940010     0.00360
C56         C  0.75794643  0.80469456  0.74332401    -0.11820
C57         C  0.74482538  0.79325761  0.77374744     0.02850
C58         C  0.75985163  0.76429402  0.78871443    -0.11240
H59         H  0.82930563  0.74824004  0.73432194     0.08440
H60         H  0.74532925  0.82678646  0.73120178     0.05970
H61         H  0.74898445  0.75520624  0.81235286     0.05820
C62         C  0.75269288  0.97724504  0.97350713     0.02860
C63         C  0.76649077  0.96135584  0.00231869    -0.13290
C64         C  0.80113559  0.96910454  0.01422981     0.00360
C65         C  0.82123180  0.99413376  0.99801504    -0.11820
C66         C  0.80631553  0.01174658  0.97036919     0.02850
C67         C  0.77201934  0.00301703  0.95808947    -0.11240
H68         H  0.75001646  0.94303758  0.01538362     0.08440
H69         H  0.84790478  0.00063541  0.00755541     0.05970
H70         H  0.76022409  0.01623416  0.93656430     0.05820
C71         C  0.98307136  0.77620486  0.03536546     0.02860
C72         C  0.00823464  0.79609364  0.01859777    -0.13290
C73         C  0.02089923  0.78606326  0.98743903     0.00360
C74         C  0.00666621  0.75790992  0.97172059    -0.11820
C75         C  0.98393933  0.73632870  0.98940030     0.02850
C76         C  0.97349635  0.74487924  0.02214986    -0.11240
H77         H  0.01709223  0.81985845  0.02913923     0.08440
H78         H  0.01286322  0.75362327  0.94559469     0.05970
H79         H  0.95559828  0.72857871  0.03620377     0.05820
C80         C  0.98429231  0.99321066  0.73112798     0.02860
C81         C  0.97556064  0.02506556  0.74464035    -0.13290
C82         C  0.97878869  0.02998501  0.77917430     0.00360
C83         C  0.99098446  0.00348372  0.79981945    -0.11820
C84         C  0.00413227  0.97364957  0.78565811     0.02850
C85         C  0.99873123  0.96745769  0.75185829    -0.11240
H86         H  0.96397960  0.04508747  0.72877773     0.08440
H87         H  0.99281550  0.00669550  0.82672512     0.05970
H88         H  0.00613589  0.94269300  0.74194882     0.05820
O89         O  0.13849479  0.83966173  0.88782836    -0.74700
O90         O  0.20981535  0.88105080  0.83261420    -0.74730
O91         O  0.20992804  0.83351218  0.88620422    -0.74790
O92         O  0.13809551  0.88306147  0.83698382    -0.74830
O93         O  0.14275127  0.92692107  0.87209962    -0.74770
O94         O  0.21138956  0.87362922  0.92492338    -0.74740
O95         O  0.21451442  0.92342017  0.86886884    -0.74720
O96         O  0.14069313  0.88352462  0.92318565    -0.74790
Ni97       Ni  0.17473830  0.85780399  0.85953970     1.25410
Ni98       Ni  0.17861121  0.90358262  0.89861293     1.25360
C99         C  0.12749588  0.85540495  0.91400343     0.87480
C100        C  0.21776716  0.91202876  0.83880238     0.87410
C101        C  0.21342528  0.84188630  0.91698883     0.87440
C102        C  0.12779917  0.91227903  0.84721209     0.87610
O103        O  0.92473208  0.87005586  0.15752655    -0.74700
O104        O  0.86440090  0.92115066  0.21889244    -0.74730
O105        O  0.91973808  0.86488017  0.22374365    -0.74790
O106        O  0.87585255  0.92056634  0.15403770    -0.74830
O107        O  0.83041503  0.88404379  0.15019698    -0.74770
O108        O  0.88045621  0.82497096  0.21468854    -0.74740
O109        O  0.82271196  0.88150680  0.21641766    -0.74720
O110        O  0.87953157  0.83387016  0.15028333    -0.74790
Ni111      Ni  0.89775433  0.89546675  0.18983466     1.25410
Ni112      Ni  0.85132003  0.85471546  0.18393399     1.25360
C113        C  0.91086628  0.84482484  0.14247984     0.87480
C114        C  0.83052264  0.91305972  0.22057290     0.87410
C115        C  0.91346863  0.83295894  0.22255744     0.87440
C116        C  0.84710211  0.91026762  0.13956373     0.87610
O117        O  0.84087866  0.88861288  0.60850607    -0.74700
O118        O  0.90340842  0.93177201  0.54373786    -0.74730
O119        O  0.84669625  0.87948946  0.54332344    -0.74790
O120        O  0.89147654  0.93669521  0.60722309    -0.74830
O121        O  0.93575974  0.89761346  0.61533098    -0.74770
O122        O  0.88563907  0.83726202  0.55467783    -0.74740
O123        O  0.94442409  0.89000544  0.55003756    -0.74720
O124        O  0.88535364  0.84971567  0.61818420    -0.74790
Ni125      Ni  0.86903556  0.91038612  0.57445504     1.25410
Ni126      Ni  0.91470636  0.86706544  0.58383589     1.25360
C127        C  0.85383238  0.86252343  0.62429851     0.87480
C128        C  0.93726995  0.92168466  0.54351719     0.87410
C129        C  0.85290767  0.84726214  0.54619515     0.87440
C130        C  0.92031585  0.92637473  0.62226385     0.87610
O131        O  0.87875264  0.62320998  0.92688266    -0.74700
O132        O  0.82906795  0.55690677  0.87603410    -0.74730
O133        O  0.88735798  0.55781408  0.92791242    -0.74790
O134        O  0.82721265  0.62385782  0.87923555    -0.74830
O135        O  0.87139485  0.62693255  0.84073298    -0.74770
O136        O  0.92710568  0.55782989  0.88610231    -0.74740
O137        O  0.86893390  0.56133550  0.83454918    -0.74720
O138        O  0.92286060  0.62444073  0.88855279    -0.74790
Ni139      Ni  0.85393148  0.58939307  0.90386234     1.25410
Ni140      Ni  0.89921699  0.59184382  0.86101805     1.25360
C141        C  0.90880894  0.63462926  0.91629711     0.87480
C142        C  0.83620716  0.55501347  0.84443622     0.87410
C143        C  0.92060383  0.55370860  0.91757889     0.87440
C144        C  0.84075166  0.63679502  0.85260213     0.87610
O145        O  0.61719023  0.84537365  0.87144102    -0.74700
O146        O  0.54820473  0.89766448  0.92330259    -0.74730
O147        O  0.54559635  0.84554784  0.87189927    -0.74790
O148        O  0.61940347  0.89287266  0.91856957    -0.74830
O149        O  0.61633924  0.93480956  0.88052999    -0.74770
O150        O  0.54684009  0.88258768  0.82988178    -0.74740
O151        O  0.54391869  0.93642341  0.88273529    -0.74720
O152        O  0.61767430  0.88709664  0.83312378    -0.74790
Ni153      Ni  0.58169150  0.86896100  0.89773307     1.25410
Ni154      Ni  0.57998789  0.91190119  0.85511301     1.25360
C155        C  0.62937991  0.85837894  0.84438599     0.87480
C156        C  0.54161011  0.92866276  0.91418828     0.87410
C157        C  0.54239875  0.85178285  0.84024238     0.87440
C158        C  0.63086613  0.92073576  0.90656785     0.87610
O159        O  0.89117641  0.14767657  0.92946391    -0.74700
O160        O  0.93641970  0.21901638  0.87964839    -0.74730
O161        O  0.88617096  0.21418398  0.93758836    -0.74790
O162        O  0.93535444  0.15194911  0.87685939    -0.74830
O163        O  0.88689568  0.15480907  0.84304431    -0.74770
O164        O  0.83939180  0.21753331  0.90223873    -0.74740
O165        O  0.89061825  0.22004537  0.84353397    -0.74720
O166        O  0.84280082  0.15089656  0.89522187    -0.74790
Ni167      Ni  0.91404104  0.18411508  0.90726683     1.25410
Ni168      Ni  0.86300876  0.18713773  0.86995855     1.25360
C169        C  0.86075863  0.13643625  0.91919146     0.87480
C170        C  0.92524538  0.22275708  0.84918805     0.87410
C171        C  0.85150326  0.21889306  0.93262997     0.87440
C172        C  0.91807378  0.14212935  0.85075475     0.87610
O173        O  0.21575733  0.42242453  0.29725806    -0.81170
O174        O  0.28671610  0.51724507  0.19021259    -0.65850
O175        O  0.27029106  0.46171202  0.27059104    -1.12460
C176        C  0.19742841  0.56139965  0.29887859     1.05720
O177        O  0.29854328  0.56030210  0.22207382    -0.79060
O178        O  0.30303513  0.55130110  0.29006960    -0.66640
Ni179      Ni  0.25193511  0.41676182  0.26374447     1.34870
C180        C  0.30337115  0.53048721  0.31498609     0.84460
O181        O  0.31750712  0.45268139  0.21581734    -0.79600
O182        O  0.29007603  0.40512705  0.23272367    -0.89880
C183        C  0.29006945  0.54945935  0.19321688     0.84030
O184        O  0.21510041  0.42881756  0.22961243    -0.68080
O185        O  0.22678192  0.57600553  0.29031768    -0.87370
C186        C  0.21524179  0.44970822  0.20492018     0.84860
C187        C  0.31808251  0.42010622  0.22166375     1.06430
H188        H  0.22404858  0.52166640  0.23734707     0.38230
O189        O  0.24613153  0.51979742  0.25063449    -1.10030
O190        O  0.27615169  0.51119965  0.31970445    -0.66680
Ni191      Ni  0.23626495  0.49394180  0.29104745     1.26350
O192        O  0.24118818  0.47040457  0.20142238    -0.66910
O193        O  0.19798944  0.52875141  0.30470174    -0.79200
C194        C  0.22422086  0.43152957  0.32660462     0.84250
O195        O  0.22959818  0.46341174  0.33074978    -0.66370
Ni196      Ni  0.26414737  0.56478306  0.25766432     1.27450
Ni197      Ni  0.28027045  0.48753491  0.23020969     1.26060
H198        H  0.29237364  0.45974964  0.28388481     0.38790
O199        O  0.16135966  0.28140595  0.54017573    -0.81170
O200        O  0.28083316  0.21930251  0.43386977    -0.65850
O201        O  0.21535742  0.23748623  0.51080381    -1.12460
C202        C  0.31566459  0.29844944  0.54527358     1.05720
O203        O  0.33261012  0.21699187  0.46315668    -0.79060
O204        O  0.30427774  0.20198284  0.52787007    -0.66640
Ni205      Ni  0.16858781  0.25737243  0.49854721     1.34870
C206        C  0.28408314  0.20358809  0.55408163     0.84460
O207        O  0.21240109  0.19395059  0.45709018    -0.79600
O208        O  0.16671325  0.23054857  0.45881696    -0.89880
C209        C  0.31596734  0.21588139  0.43511312     0.84030
O210        O  0.19229514  0.29600223  0.47611484    -0.68080
O211        O  0.32781954  0.26793253  0.54449657    -0.87370
C212        C  0.21328613  0.29404502  0.45038445     0.84860
C213        C  0.17786062  0.19969974  0.45884897     1.06430
H214        H  0.28092624  0.27990274  0.47992391     0.38230
O215        O  0.27825509  0.25949870  0.49330083    -1.10030
O216        O  0.26680821  0.23141611  0.56108836    -0.66680
Ni217      Ni  0.24677869  0.26869039  0.53211535     1.26350
O218        O  0.22817540  0.26530992  0.44275995    -0.66910
O219        O  0.28091210  0.30321363  0.54704653    -0.79200
C220        C  0.17681915  0.27908639  0.56879251     0.84250
O221        O  0.21208465  0.27576249  0.57054684    -0.66370
Ni222      Ni  0.32574621  0.24107430  0.50474880     1.27450
Ni223      Ni  0.24684235  0.22791562  0.47213487     1.26060
H224        H  0.21220951  0.21732431  0.52420837     0.38790
O225        O  0.47574862  0.71711970  0.67611784    -0.81170
O226        O  0.53886483  0.82268847  0.78440011    -0.65850
O227        O  0.52364184  0.74426162  0.72478219    -1.12460
C228        C  0.45196413  0.71062866  0.81649540     1.05720
O229        O  0.53993879  0.79220623  0.83155486    -0.79060
O230        O  0.55676460  0.72402737  0.80837197    -0.66640
Ni231      Ni  0.50634870  0.75592764  0.68056385     1.34870
C232        C  0.55536329  0.69743031  0.78966120     0.84460
O233        O  0.57310267  0.79779951  0.72168261    -0.79600
O234        O  0.53887273  0.79330283  0.67666209    -0.89880
C235        C  0.53844406  0.82112773  0.81686223     0.84030
O236        O  0.46539421  0.78418949  0.69730552    -0.68080
O237        O  0.48424034  0.71161341  0.82803621    -0.87370
C238        C  0.46700116  0.81085574  0.71532553     0.84860
C239        C  0.57067257  0.79565144  0.68935828     1.06430
H240        H  0.47525309  0.77731547  0.78276632     0.38230
O241        O  0.49703839  0.76301291  0.78121834    -1.10030
O242        O  0.52630749  0.69234851  0.77238313    -0.66680
Ni243      Ni  0.48765948  0.72368132  0.75328152     1.26350
O244        O  0.49546276  0.81563749  0.73327767    -0.66910
O245        O  0.44831610  0.70959698  0.78438292    -0.79200
C246        C  0.47606372  0.68788174  0.68987952     0.84250
O247        O  0.47989398  0.68516320  0.72196083    -0.66370
Ni248      Ni  0.51402091  0.75073443  0.82551560     1.27450
Ni249      Ni  0.53308974  0.78377845  0.75282962     1.26060
H250        H  0.54541264  0.72997058  0.72318999     0.38790
O251        O  0.28889941  0.70917374  0.07521806    -0.81170
O252        O  0.21653314  0.81710363  0.97404839    -0.65850
O253        O  0.23561542  0.73789520  0.03182753    -1.12460
C254        C  0.30216987  0.70592465  0.93577548     1.05720
O255        O  0.20362500  0.78421982  0.93219325    -0.79060
O256        O  0.19701434  0.71658270  0.94914433    -0.66640
Ni257      Ni  0.25790129  0.74922855  0.07385896     1.34870
C258        C  0.20002726  0.69094830  0.96911867     0.84460
O259        O  0.18756783  0.79335438  0.03681510    -0.79600
O260        O  0.22558869  0.78793307  0.07958087    -0.89880
C261        C  0.21282775  0.81325366  0.94248489     0.84030
O262        O  0.29697016  0.77606613  0.05343238    -0.68080
O263        O  0.27016399  0.70889373  0.92338647    -0.87370
C264        C  0.29250539  0.80277392  0.03526304     0.84860
C265        C  0.19298379  0.79129250  0.06857380     1.06430
H266        H  0.27867395  0.76926105  0.97036038     0.38230
O267        O  0.25718464  0.75587424  0.97359176    -1.10030
O268        O  0.22991920  0.68586771  0.98531787    -0.66680
Ni269      Ni  0.26892299  0.71625676  0.00104912     1.26350
O270        O  0.26212442  0.80809110  0.02027276    -0.66910
O271        O  0.30585443  0.70198551  0.96777519    -0.79200
C272        C  0.28311009  0.67985861  0.06339667     0.84250
O273        O  0.27808299  0.67695721  0.03166804    -0.66370
Ni274      Ni  0.23580019  0.74556062  0.93082716     1.27450
Ni275      Ni  0.22396831  0.77769824  0.00416841     1.26060
H276        H  0.21415512  0.72451716  0.03545243     0.38790
O277        O  0.96246421  0.53794516  0.07502276    -0.81170
O278        O  0.04437086  0.43672887  0.98759570    -0.65850
O279        O  0.02132814  0.51637653  0.04053841    -1.12460
C280        C  0.95293367  0.54693630  0.94154462     1.05720
O281        O  0.05424121  0.46915901  0.94468181    -0.79060
O282        O  0.05804306  0.53724471  0.95533684    -0.66640
Ni283      Ni  0.00112255  0.50698671  0.08407981     1.34870
C284        C  0.05547446  0.56271550  0.97507614     0.84460
O285        O  0.07155208  0.46290898  0.05016735    -0.79600
O286        O  0.04215758  0.47822096  0.09727962    -0.89880
C287        C  0.04558639  0.44029085  0.95594610     0.84030
O288        O  0.96808124  0.47052780  0.07157358    -0.68080
O289        O  0.98414835  0.54088216  0.92829439    -0.87370
C290        C  0.97010479  0.44724047  0.04945298     0.84860
C291        C  0.07104570  0.46769315  0.08235265     1.06430
H292        H  0.97969854  0.48295546  0.98024109     0.38230
O293        O  0.00084186  0.49694327  0.98275527    -1.10030
O294        O  0.02624352  0.56745802  0.99216545    -0.66680
Ni295      Ni  0.98745274  0.53669641  0.00802824     1.26350
O296        O  0.99697134  0.44581341  0.02956328    -0.66910
O297        O  0.95042383  0.55057573  0.97368418    -0.79200
C298        C  0.97028524  0.56825456  0.06803069     0.84250
O299        O  0.97620822  0.57524722  0.03733873    -0.66370
Ni300      Ni  0.02053208  0.50601856  0.93928116     1.27450
Ni301      Ni  0.03494477  0.47678826  0.01532508     1.26060
H302        H  0.04236248  0.53047804  0.04321969     0.38790
O303        O  0.23214486  0.91928452  0.78172626    -0.81170
O304        O  0.28626251  0.03803306  0.67961481    -0.65850
O305        O  0.27176565  0.97334639  0.75425336    -1.12460
C306        C  0.19745740  0.06224356  0.79104119     1.05720
O307        O  0.28653900  0.08376621  0.71178243    -0.79060
O308        O  0.30132528  0.05360712  0.77464949    -0.66640
Ni309      Ni  0.25889221  0.92840110  0.74140503     1.34870
C310        C  0.29870538  0.03467341  0.80074712     0.84460
O311        O  0.32352879  0.97428946  0.70312386    -0.79600
O312        O  0.28919264  0.93014356  0.70274852    -0.89880
C313        C  0.28560108  0.07079107  0.68273139     0.84030
O314        O  0.21612489  0.94628649  0.71696640    -0.68080
O315        O  0.22978185  0.07272408  0.79090312    -0.87370
C316        C  0.21711433  0.96602437  0.69122460     0.84860
C317        C  0.32120386  0.94164480  0.70405967     1.06430
H318        H  0.22124559  0.03344987  0.72266628     0.38230
O319        O  0.24277509  0.03102409  0.73679180    -1.10030
O320        O  0.26940365  0.01842222  0.80597300    -0.66680
Ni321      Ni  0.23330444  0.00029944  0.77414962     1.26350
O322        O  0.24521218  0.98402696  0.68560547    -0.66910
O323        O  0.19301045  0.03020197  0.78922064    -0.79200
C324        C  0.22666146  0.93460331  0.80928330     0.84250
O325        O  0.22517228  0.96728402  0.81069059    -0.66370
Ni326      Ni  0.25909696  0.07448916  0.75158670     1.27450
Ni327      Ni  0.28102641  0.00401457  0.71667254     1.26060
H328        H  0.29309042  0.97163577  0.76907702     0.38790
O329        O  0.71630922  0.82753297  0.46997579    -0.81170
O330        O  0.78999278  0.73008690  0.57554673    -0.65850
O331        O  0.76896378  0.78407100  0.49655262    -1.12460
C332        C  0.69641233  0.68614423  0.46921332     1.05720
O333        O  0.79970870  0.68659164  0.54336027    -0.79060
O334        O  0.79972057  0.69298820  0.47710245    -0.66640
Ni335      Ni  0.75126174  0.82948738  0.50514033     1.34870
C336        C  0.79886127  0.71394720  0.45253821     0.84460
O337        O  0.82125846  0.79085854  0.54735367    -0.79600
O338        O  0.78865974  0.83811205  0.53822415    -0.89880
C339        C  0.79308489  0.69807530  0.57222974     0.84030
O340        O  0.71337764  0.81596667  0.53719759    -0.68080
O341        O  0.72517948  0.67073043  0.47983585    -0.87370
C342        C  0.71577489  0.79621121  0.56277755     0.84860
C343        C  0.81987926  0.82347585  0.54264216     1.06430
H344        H  0.72435460  0.72681757  0.53281175     0.38230
O345        O  0.74555864  0.72742716  0.51845497    -1.10030
O346        O  0.77173918  0.73439877  0.44857216    -0.66680
Ni347      Ni  0.73371185  0.75283546  0.47851542     1.26350
O348        O  0.74463713  0.77793226  0.56727041    -0.66910
O349        O  0.69567682  0.71906339  0.46544399    -0.79200
C350        C  0.72162438  0.81421787  0.44145105     0.84250
O351        O  0.72565146  0.78197708  0.43937159    -0.66370
Ni352      Ni  0.76331165  0.68165160  0.51083231     1.27450
Ni353      Ni  0.78148584  0.75850674  0.53621114     1.26060
H354        H  0.79011447  0.78515728  0.48216833     0.38790
O355        O  0.95241931  0.71417241  0.19745400    -0.81170
O356        O  0.02505338  0.81952686  0.28734339    -0.65850
O357        O  0.00818258  0.74026648  0.23251290    -1.12460
C358        C  0.94672885  0.70924690  0.33238173     1.05720
O359        O  0.04521365  0.78507967  0.32673697    -0.79060
O360        O  0.05017476  0.71625556  0.31859476    -0.66640
Ni361      Ni  0.98588164  0.74848959  0.18926893     1.34870
C362        C  0.04820524  0.69053909  0.29928446     0.84460
O363        O  0.05120818  0.79682301  0.22299927    -0.79600
O364        O  0.02243305  0.78012452  0.17654321    -0.89880
C365        C  0.03434336  0.81470762  0.31794767     0.84030
O366        O  0.94740828  0.78247632  0.20161541    -0.68080
O367        O  0.97761539  0.71524492  0.34570142    -0.87370
C368        C  0.94604575  0.80601564  0.22365543     0.84860
C369        C  0.05121031  0.79009031  0.19125010     1.06430
H370        H  0.96601711  0.77042862  0.29505533     0.38230
O371        O  0.98853212  0.75772188  0.29121586    -1.10030
O372        O  0.01992271  0.68737271  0.28064985    -0.66680
Ni373      Ni  0.97839723  0.71774529  0.26552593     1.26350
O374        O  0.97311734  0.80876062  0.24405772    -0.66910
O375        O  0.94422218  0.70304055  0.30060580    -0.79200
C376        C  0.96423459  0.68461786  0.20487413     0.84250
O377        O  0.97074287  0.67862377  0.23585477    -0.66370
Ni378      Ni  0.01227525  0.74912210  0.33364067     1.27450
Ni379      Ni  0.01729453  0.78055668  0.25794821     1.26060
H380        H  0.03087681  0.72757380  0.22951599     0.38790
O381        O  0.57032981  0.95300760  0.03253089    -0.81170
O382        O  0.46532799  0.02526560  0.93063638    -0.65850
O383        O  0.52614539  0.00489128  0.00850043    -1.12460
C384        C  0.42217675  0.94116484  0.03704124     1.05720
O385        O  0.41715971  0.03425226  0.96226663    -0.79060
O386        O  0.43546475  0.03962693  0.02886400    -0.66640
Ni387      Ni  0.57472789  0.98771161  0.99973338     1.34870
C388        C  0.45710908  0.03626387  0.05405359     0.84460
O389        O  0.53249421  0.05168100  0.95585449    -0.79600
O390        O  0.58486342  0.02408823  0.96893691    -0.89880
C391        C  0.43068870  0.02872698  0.93348853     0.84030
O392        O  0.56177740  0.95478900  0.96538775    -0.68080
O393        O  0.40834434  0.97117979  0.03496241    -0.87370
C394        C  0.53898798  0.95627694  0.94106030     0.84860
C395        C  0.56746456  0.05136275  0.96062173     1.06430
H396        H  0.46133469  0.96519786  0.97438718     0.38230
O397        O  0.46394278  0.98473443  0.98864375    -1.10030
O398        O  0.47426151  0.00793945  0.05871400    -0.66680
Ni399      Ni  0.49285235  0.97259011  0.02763126     1.26350
O400        O  0.51637122  0.98132856  0.93838258    -0.66910
O401        O  0.45718833  0.93757918  0.04006761    -0.79200
C402        C  0.55933539  0.95933730  0.06197508     0.84250
O403        O  0.52497889  0.96317391  0.06632644    -0.66370
Ni404      Ni  0.41650881  0.00375956  0.99947869     1.27450
Ni405      Ni  0.49738288  0.01660535  0.96928163     1.26060
H406        H  0.52780290  0.02460172  0.02266326     0.38790
C407        C  0.29335578  0.73705715  0.28856492     0.02860
C408        C  0.30560038  0.74661624  0.25690048    -0.13290
C409        C  0.28554575  0.77096147  0.23859927     0.00360
C410        C  0.25159886  0.78243164  0.25010464    -0.11820
C411        C  0.24070612  0.77422554  0.28236170     0.02850
C412        C  0.26231418  0.75272733  0.30220335    -0.11240
H413        H  0.32994893  0.73485955  0.24632167     0.08440
H414        H  0.23502904  0.79997881  0.23503360     0.05970
H415        H  0.25421775  0.74687533  0.32769094     0.05820
O416        O  0.37591214  0.59910894  0.42400639    -0.74700
O417        O  0.32718068  0.53258963  0.37267268    -0.74730
O418        O  0.38481933  0.53392833  0.42629852    -0.74790
O419        O  0.32799298  0.60023850  0.37488608    -0.74830
O420        O  0.37434585  0.60283498  0.33868715    -0.74770
O421        O  0.42570762  0.53198810  0.38567913    -0.74740
O422        O  0.36817475  0.53733845  0.33231612    -0.74720
O423        O  0.42240739  0.59924399  0.38775649    -0.74790
Ni424      Ni  0.35217594  0.56515811  0.40075820     1.25410
Ni425      Ni  0.39943523  0.56666097  0.35962676     1.25360
C426        C  0.40559152  0.61119867  0.41349195     0.87480
C427        C  0.33476009  0.53178848  0.34116213     0.87410
C428        C  0.41867347  0.53035513  0.41725404     0.87440
C429        C  0.34430160  0.61447903  0.35022544     0.87610
C430        C  0.51210481  0.95684302  0.26457452     0.02860
C431        C  0.49347558  0.97807737  0.28695969    -0.13290
C432        C  0.46009027  0.99333899  0.27754358     0.00360
C433        C  0.44414360  0.98503564  0.24695298    -0.11820
C434        C  0.46177991  0.96170555  0.22622469     0.02850
C435        C  0.49635430  0.94891432  0.23408770    -0.11240
H436        H  0.50490417  0.98294295  0.31151245     0.08440
H437        H  0.41789839  0.99605155  0.23956122     0.05970
H438        H  0.50990438  0.93095543  0.21742592     0.05820
O439        O  0.63060742  0.89955804  0.35510455    -0.74700
O440        O  0.70110646  0.86591075  0.41684403    -0.74730
O441        O  0.69847906  0.91467286  0.36556598    -0.74790
O442        O  0.63267105  0.85281923  0.40419194    -0.74830
O443        O  0.64880386  0.81315570  0.36672385    -0.74770
O444        O  0.71559720  0.87616577  0.32777669    -0.74740
O445        O  0.71734342  0.82483634  0.38137070    -0.74720
O446        O  0.64767807  0.86038013  0.31746257    -0.74790
Ni447      Ni  0.66561962  0.88463593  0.38681127     1.25410
Ni448      Ni  0.68390538  0.84215276  0.34705503     1.25360
C449        C  0.62829540  0.88624026  0.32611983     0.87480
C450        C  0.71460993  0.83618338  0.41148429     0.87410
C451        C  0.71136748  0.90746580  0.33659215     0.87440
C452        C  0.62983169  0.82319154  0.39179416     0.87610
O453        O  0.31528089  0.85684167  0.10663092    -0.74700
O454        O  0.36186665  0.91706398  0.04520920    -0.74730
O455        O  0.31031092  0.86154559  0.04087312    -0.74790
O456        O  0.36131597  0.90771334  0.10996073    -0.74830
O457        O  0.40850977  0.87073534  0.10543575    -0.74770
O458        O  0.35551228  0.82320178  0.03806417    -0.74740
O459        O  0.40812049  0.88010436  0.04065752    -0.74720
O460        O  0.36254283  0.82004735  0.10304033    -0.74790
Ni461      Ni  0.33536955  0.88716212  0.07490295     1.25410
Ni462      Ni  0.38540144  0.84718032  0.07044354     1.25360
C463        C  0.33264016  0.82992580  0.11649652     0.87480
C464        C  0.39623130  0.91122996  0.04027050     0.87410
C465        C  0.32101151  0.83061463  0.03590596     0.88400
C466        C  0.39251571  0.89607463  0.11940984     0.87610
C467        C  0.22663313  0.97910678  0.49149494     0.02860
C468        C  0.23854522  0.00889269  0.47650109    -0.13290
C469        C  0.27244601  0.02191735  0.48504018     0.00360
C470        C  0.29413282  0.00503692  0.50912543    -0.11820
C471        C  0.28081747  0.97662708  0.52576197     0.02850
C472        C  0.24709494  0.96367542  0.51706566    -0.11240
H473        H  0.22309244  0.02010752  0.45582453     0.08440
H474        H  0.32184586  0.01271051  0.51384946     0.05970
H475        H  0.23803628  0.94023721  0.52845008     0.05820
C476        C  0.50970601  0.76838172  0.45751153     0.02860
C477        C  0.49100007  0.73961151  0.44915967    -0.13290
C478        C  0.46340765  0.72842077  0.46993510     0.00360
C479        C  0.45216585  0.74753749  0.49735961    -0.11820
C480        C  0.47191414  0.77606788  0.50660065     0.02850
C481        C  0.50141239  0.78578137  0.48699640    -0.11240
H482        H  0.49945355  0.72461236  0.42770394     0.08440
H483        H  0.42949351  0.73903507  0.51241201     0.05970
H484        H  0.51909241  0.80567047  0.49523473     0.05820
O485        O  0.34803682  0.87640408  0.63795024    -0.74700
O486        O  0.40312778  0.82933334  0.70701277    -0.74730
O487        O  0.34639171  0.88376131  0.70318960    -0.74790
O488        O  0.39884766  0.82725210  0.64157343    -0.74830
O489        O  0.44272118  0.86555918  0.63952833    -0.74770
O490        O  0.38704331  0.92421305  0.69863396    -0.74740
O491        O  0.44433321  0.86955370  0.70619134    -0.74720
O492        O  0.39193398  0.91484135  0.63434132    -0.74790
Ni493      Ni  0.37253326  0.85282469  0.67356132     1.25410
Ni494      Ni  0.41833456  0.89491176  0.67056847     1.25360
C495        C  0.36171940  0.90277046  0.62454059     0.87480
C496        C  0.43645318  0.83821480  0.71151138     0.87410
C497        C  0.35355453  0.91571914  0.70304823     0.87440
C498        C  0.42837072  0.83818317  0.62918984     0.87610
O499        O  0.37269897  0.12599787  0.32749363    -0.74700
O500        O  0.32814754  0.20162333  0.37503357    -0.74730
O501        O  0.38456140  0.19131320  0.32042078    -0.74790
O502        O  0.32268150  0.13558198  0.37549797    -0.74830
O503        O  0.36646644  0.13303942  0.41461436    -0.74770
O504        O  0.42762030  0.18761631  0.35963212    -0.74740
O505        O  0.37400742  0.19905058  0.41141959    -0.74720
O506        O  0.41610734  0.12245108  0.36693886    -0.74790
Ni507      Ni  0.35046778  0.16485985  0.34797043     1.25410
Ni508      Ni  0.39763814  0.16117674  0.38941132     1.25360
C509        C  0.40112724  0.11147319  0.34037017     0.87480
C510        C  0.34023637  0.20637829  0.40510576     0.87410
C511        C  0.41877842  0.19207954  0.32861399     0.87440
C512        C  0.33522501  0.12449436  0.40354501     0.87610
O513        O  0.11362689  0.83293728  0.37273822    -0.74700
O514        O  0.04642094  0.88396958  0.42695021    -0.74730
O515        O  0.04204625  0.83437950  0.37409543    -0.74790
O516        O  0.11722985  0.87851042  0.42158470    -0.74830
O517        O  0.11388259  0.92159970  0.38467017    -0.74770
O518        O  0.04282821  0.87356225  0.33369729    -0.74740
O519        O  0.04226037  0.92291249  0.38641088    -0.74720
O520        O  0.11397311  0.87563918  0.33550364    -0.74790
Ni521      Ni  0.07901745  0.85580354  0.40024303     1.25410
Ni522      Ni  0.07741828  0.90005384  0.35866487     1.25360
C523        C  0.12566409  0.84671084  0.34595882     0.87480
C524        C  0.04090353  0.91498316  0.41768538     0.87410
C525        C  0.03782210  0.84275427  0.34305414     0.87440
C526        C  0.12736521  0.90742252  0.41106600     0.87610
O527        O  0.79448296  0.03385368  0.17783777    -0.81170
O528        O  0.72306369  0.93240197  0.28167130    -0.65850
O529        O  0.74138664  0.00817709  0.22143744    -1.12460
C530        C  0.80153623  0.04638414  0.31833150     1.05720
O531        O  0.70830555  0.96607398  0.32326846    -0.79060
O532        O  0.69853374  0.03134135  0.30009185    -0.66640
Ni533      Ni  0.76383148  0.99501594  0.17982798     1.34870
C534        C  0.70145652  0.05727578  0.28098723     0.84460
O535        O  0.69478837  0.95374337  0.21810949    -0.79600
O536        O  0.73166261  0.95761245  0.17471366    -0.89880
C537        C  0.71637920  0.93654044  0.31273083     0.84030
O538        O  0.80327659  0.96676167  0.20046584    -0.68080
O539        O  0.76882189  0.04365083  0.32849847    -0.87370
C540        C  0.80011057  0.94109939  0.22007661     0.84860
C541        C  0.69941544  0.95511770  0.18629309     1.06430
H542        H  0.78415118  0.97920311  0.28559069     0.38230
O543        O  0.76213888  0.99263327  0.28102968    -1.10030
O544        O  0.73171193  0.06221507  0.26586269    -0.66680
Ni545      Ni  0.77269611  0.03115314  0.25216814     1.26350
O546        O  0.77041860  0.93769567  0.23640516    -0.66910
O547        O  0.80739133  0.04775142  0.28637931    -0.79200
C548        C  0.78719422  0.06383614  0.18797194     0.84250
O549        O  0.78070411  0.06846764  0.21938190    -0.66370
Ni550      Ni  0.73821130  0.00520666  0.32224471     1.27450
Ni551      Ni  0.73064429  0.96991138  0.25039150     1.26060
H552        H  0.71939215  0.02152535  0.21698980     0.38790
O553        O  0.72804139  0.17133608  0.97118938    -0.81170
O554        O  0.83329294  0.28756165  0.03108661    -0.65850
O555        O  0.75389122  0.22364218  0.01319497    -1.12460
C556        C  0.71443011  0.31279272  0.94501775     1.05720
O557        O  0.79897307  0.33493239  0.02714542    -0.79060
O558        O  0.72995318  0.30593481  0.04167377    -0.66640
Ni559      Ni  0.77019455  0.17951320  0.99853526     1.34870
C560        C  0.70251964  0.28625153  0.04055126     0.84460
O561        O  0.80884210  0.22453360  0.06102768    -0.79600
O562        O  0.81084072  0.18075967  0.02829893    -0.89880
C563        C  0.83017227  0.32036648  0.03089524     0.84030
O564        O  0.79722246  0.19856967  0.96054608    -0.68080
O565        O  0.71265985  0.32411758  0.97473254    -0.87370
C566        C  0.82425488  0.21866126  0.96216521     0.84860
C567        C  0.80772720  0.19217438  0.05784474     1.06430
H568        H  0.78688047  0.28327154  0.96879558     0.38230
O569        O  0.77132239  0.28130620  0.98815992    -1.10030
O570        O  0.69640589  0.26954566  0.01355194    -0.66680
Ni571      Ni  0.73089859  0.25078790  0.97910026     1.26350
O572        O  0.82955477  0.23551901  0.98923619    -0.66910
O573        O  0.71453611  0.28046302  0.94171807    -0.79200
C574        C  0.69607902  0.18478120  0.96979250     0.84250
O575        O  0.69161617  0.21734441  0.97185759    -0.66370
Ni576      Ni  0.75498688  0.32554760  0.00260187     1.27450
Ni577      Ni  0.79394236  0.25422573  0.02294140     1.26060
H578        H  0.73827128  0.22132618  0.03256483     0.38790
C579        C  0.27644290  0.27430794  0.73542984     0.02860
C580        C  0.25774702  0.29853457  0.75434648    -0.13290
C581        C  0.24111336  0.28895337  0.78396358     0.00360
C582        C  0.24367743  0.25536443  0.79503982    -0.11820
C583        C  0.26394478  0.23177522  0.77663920     0.02850
C584        C  0.27946383  0.24077763  0.74618021    -0.11240
H585        H  0.25597720  0.32480626  0.74590953     0.08440
H586        H  0.23148978  0.24787855  0.81863879     0.05970
H587        H  0.29598728  0.22250818  0.73228240     0.05820
C588        C  0.52173671  0.26217946  0.96775472     0.02860
C589        C  0.50581325  0.23318967  0.95527771    -0.13290
C590        C  0.47094345  0.22457048  0.96580294     0.00360
C591        C  0.45424349  0.24247307  0.99202098    -0.11820
C592        C  0.47251453  0.26905867  0.00710870     0.02850
C593        C  0.50533149  0.27997989  0.99391878    -0.11240
H594        H  0.51995706  0.21844626  0.93629482     0.08440
H595        H  0.42737807  0.23568716  0.00079296     0.05970
H596        H  0.51804058  0.30235677  0.00396283     0.05820
C597        C  0.47203946  0.51139197  0.78015387     0.02860
C598        C  0.44880046  0.49938356  0.75566935    -0.13290
C599        C  0.46178272  0.47426743  0.73443529     0.00360
C600        C  0.49757377  0.46173241  0.73674069    -0.11820
C601        C  0.51885614  0.47044390  0.76404066     0.02850
C602        C  0.50576291  0.49563704  0.78589152    -0.11240
H603        H  0.42139525  0.51006922  0.75258442     0.08440
H604        H  0.50788315  0.44428987  0.71802474     0.05970
H605        H  0.52175928  0.50355791  0.80723699     0.05820
C606        C  0.30018891  0.46568987  0.01740897     0.02860
C607        C  0.26740072  0.45529188  0.00355803    -0.13290
C608        C  0.25858572  0.46419973  0.97081373     0.00360
C609        C  0.28010142  0.48630078  0.95298427    -0.11820
C610        C  0.31149189  0.49860515  0.96770457     0.02850
C611        C  0.32259401  0.48741837  0.99945176    -0.11240
H612        H  0.24965412  0.43885419  0.01772126     0.08440
H613        H  0.27137486  0.49529527  0.92837808     0.05970
H614        H  0.34808753  0.49588951  0.00993244     0.05820
O615        O  0.39104176  0.63499316  0.83511852    -0.74700
O616        O  0.32789760  0.69804132  0.88013947    -0.74730
O617        O  0.38772518  0.70093926  0.83119650    -0.74790
O618        O  0.33676996  0.63155739  0.87852739    -0.74830
O619        O  0.37621350  0.63515088  0.92132526    -0.74770
O620        O  0.42741600  0.70336221  0.87302251    -0.74740
O621        O  0.36736061  0.70080501  0.92231573    -0.74720
O622        O  0.43044341  0.63700799  0.87793922    -0.74790
Ni623      Ni  0.35915279  0.66728582  0.85471960     1.25410
Ni624      Ni  0.40179507  0.67026673  0.90018906     1.25360
C625        C  0.42036441  0.62500686  0.84996010     0.87480
C626        C  0.33415037  0.70233707  0.91165454     0.87410
C627        C  0.42050993  0.70592847  0.84129488     0.87440
C628        C  0.34949581  0.62117435  0.90670376     0.87610
O629        O  0.64241210  0.32746468  0.87349795    -0.74700
O630        O  0.71504052  0.38094341  0.83073063    -0.74730
O631        O  0.71230953  0.32796410  0.88479701    -0.74790
O632        O  0.64496321  0.37526915  0.82607379    -0.74830
O633        O  0.63633629  0.41505129  0.86515288    -0.74770
O634        O  0.70525959  0.36920776  0.92204188    -0.74740
O635        O  0.70698482  0.42024213  0.86969207    -0.74720
O636        O  0.63479283  0.36720611  0.91292753    -0.74790
Ni637      Ni  0.68006614  0.35135236  0.85241790     1.25410
Ni638      Ni  0.67136166  0.39444236  0.89394089     1.25360
C639        C  0.62680941  0.33881791  0.89981000     0.87480
C640        C  0.71425498  0.41252940  0.83903457     0.87410
C641        C  0.71187321  0.33771383  0.91567059     0.87440
C642        C  0.62976698  0.40287675  0.83630343     0.87610
O643        O  0.42138523  0.38003530  0.61706466    -0.74700
O644        O  0.37624082  0.32095547  0.55430136    -0.74730
O645        O  0.42791119  0.37559290  0.55162868    -0.74790
O646        O  0.37532935  0.32928646  0.61883897    -0.74830
O647        O  0.32829479  0.36607734  0.61286695    -0.74770
O648        O  0.38328588  0.41454091  0.54674525    -0.74740
O649        O  0.33060302  0.35856215  0.54783532    -0.74720
O650        O  0.37438118  0.41714855  0.61112770    -0.74790
Ni651      Ni  0.40205574  0.35011137  0.58480496     1.25410
Ni652      Ni  0.35240409  0.39041954  0.57838559     1.25360
C653        C  0.40410354  0.40739930  0.62513777     0.87480
C654        C  0.34219560  0.32743295  0.54815287     0.87410
C655        C  0.41762175  0.40640069  0.54527233     0.87440
C656        C  0.34362399  0.34022441  0.62716451     0.87610
O657        O  0.43648993  0.35990825  0.13837534    -0.74700
O658        O  0.38263763  0.40680954  0.20741802    -0.74730
O659        O  0.44109736  0.35294518  0.20422563    -0.74790
O660        O  0.38413090  0.40763699  0.14246365    -0.74830
O661        O  0.34114603  0.36828590  0.14329567    -0.74770
O662        O  0.40037179  0.31223710  0.20118657    -0.74740
O663        O  0.34378812  0.36460197  0.20886374    -0.74720
O664        O  0.39318644  0.32079859  0.13664899    -0.74790
Ni665      Ni  0.41289155  0.38323875  0.17422864     1.25410
Ni666      Ni  0.36809379  0.34003268  0.17336423     1.25360
C667        C  0.42216280  0.33389241  0.12515407     0.87480
C668        C  0.35011870  0.39635466  0.21285553     0.87410
C669        C  0.43364369  0.32100486  0.20524043     0.87440
C670        C  0.35396970  0.39593544  0.13204508     0.87610
O671        O  0.36926042  0.10291301  0.91319016    -0.74700
O672        O  0.31722392  0.03964786  0.85868127    -0.74730
O673        O  0.37093885  0.03600260  0.91078375    -0.74790
O674        O  0.31904171  0.10629739  0.86438845    -0.74830
O675        O  0.36354198  0.10784198  0.82599571    -0.74770
O676        O  0.41641222  0.03795471  0.87415473    -0.74740
O677        O  0.36118023  0.04150227  0.82042189    -0.74720
O678        O  0.41344779  0.10429922  0.87478442    -0.74790
Ni679      Ni  0.34255175  0.07042319  0.88810685     1.25410
Ni680      Ni  0.39031882  0.07200831  0.84729903     1.25360
C681        C  0.39934754  0.11460538  0.90233450     0.87480
C682        C  0.32750225  0.03658460  0.82800874     0.87410
C683        C  0.40509398  0.03262584  0.90417577     0.87440
C684        C  0.33334297  0.11888210  0.83816109     0.87610
O685        O  0.11048527  0.42629967  0.89249960    -0.74700
O686        O  0.04026673  0.37256414  0.84814756    -0.74730
O687        O  0.03905554  0.42021268  0.90049013    -0.74790
O688        O  0.11086551  0.38201316  0.84337436    -0.74830
O689        O  0.11969244  0.33923717  0.87994410    -0.74770
O690        O  0.04992988  0.38062859  0.93916539    -0.74740
O691        O  0.04880289  0.33036417  0.88493628    -0.74720
O692        O  0.12003772  0.38370155  0.92902653    -0.74790
Ni693      Ni  0.07389423  0.40177418  0.86988751     1.25410
Ni694      Ni  0.08388968  0.35669198  0.90981441     1.25360
C695        C  0.12847764  0.41249685  0.91666326     0.87480
C696        C  0.03980238  0.34069949  0.85530751     0.87410
C697        C  0.04219600  0.41175806  0.93138769     0.87440
C698        C  0.12809378  0.35524216  0.85311308     0.87610
C699        C  0.72236564  0.73182908  0.27289025     0.02860
C700        C  0.70595648  0.75308640  0.24912249    -0.13290
C701        C  0.72454188  0.75922713  0.21932786     0.00360
C702        C  0.75893915  0.74457439  0.21398860    -0.11820
C703        C  0.77532995  0.72487171  0.23912888     0.02850
C704        C  0.75766997  0.71919412  0.26889888    -0.11240
H705        H  0.67898080  0.76400972  0.25361121     0.08440
H706        H  0.77254583  0.74797313  0.19009874     0.05970
H707        H  0.76967744  0.70168005  0.28726636     0.05820
O708        O  0.63561400  0.66715008  0.38408162    -0.74700
O709        O  0.57741839  0.61954356  0.44618489    -0.74730
O710        O  0.63355958  0.67267317  0.44881049    -0.74790
O711        O  0.58652679  0.61890636  0.38043706    -0.74830
O712        O  0.63172478  0.57981428  0.38491535    -0.74770
O713        O  0.67383998  0.63027023  0.45608748    -0.74740
O714        O  0.61871412  0.57751295  0.44902915    -0.74720
O715        O  0.68089569  0.62822124  0.39022994    -0.74790
Ni716      Ni  0.60642713  0.64598855  0.41565404     1.25410
Ni717      Ni  0.65290346  0.60256282  0.42122196     1.25360
C718        C  0.66703598  0.65512804  0.37665943     0.87480
C719        C  0.58501459  0.58772865  0.45047674     0.87410
C720        C  0.66582943  0.66233240  0.45811121     0.87440
C721        C  0.60278361  0.59145085  0.37074905     0.87610
C722        C  0.77480603  0.52962584  0.02631285     0.02860
C723        C  0.76626350  0.54299314  0.99481428    -0.13290
C724        C  0.73977568  0.52770263  0.97529030     0.00360
C725        C  0.72311071  0.49824918  0.98659734    -0.11820
C726        C  0.73107750  0.48554137  0.01857003     0.02850
C727        C  0.75635348  0.50185076  0.03870633    -0.11240
H728        H  0.77926791  0.56583660  0.98597957     0.08440
H729        H  0.70320851  0.48603705  0.97101457     0.05970
H730        H  0.76190085  0.49278510  0.06400505     0.05820
C731        C  0.49238792  0.71535910  0.03544849     0.02860
C732        C  0.50966285  0.69983050  0.00817630    -0.13290
C733        C  0.53276309  0.71846061  0.98783295     0.00360
C734        C  0.53857562  0.75248782  0.99457791    -0.11820
C735        C  0.52392553  0.76710681  0.02339474     0.02850
C736        C  0.49993899  0.74895393  0.04341026    -0.11240
H737        H  0.50454303  0.67347294  0.00242245     0.08440
H738        H  0.55690004  0.76686364  0.97890122     0.05970
H739        H  0.48823902  0.76039890  0.06567104     0.05820
C740        C  0.55146029  0.52256964  0.25726541     0.02860
C741        C  0.51482076  0.53156549  0.25286810    -0.13290
C742        C  0.49536462  0.51861930  0.22599047     0.00360
C743        C  0.51227095  0.49517933  0.20465334    -0.11820
C744        C  0.54836474  0.48475504  0.21053673     0.02850
C745        C  0.56834573  0.49864436  0.23668577    -0.11240
H746        H  0.50196809  0.54998840  0.26948467     0.08440
H747        H  0.49748049  0.48499312  0.18355023     0.05970
H748        H  0.59642102  0.49046245  0.24130736     0.05820
O749        O  0.36635834  0.61815831  0.08692770    -0.74700
O750        O  0.29464007  0.56612820  0.13341727    -0.74730
O751        O  0.29524174  0.61931535  0.07935614    -0.74790
O752        O  0.36557080  0.57093645  0.13559335    -0.74830
O753        O  0.36038711  0.61226938  0.17355318    -0.74770
O754        O  0.28918001  0.65795466  0.11933517    -0.74740
O755        O  0.28987544  0.60681644  0.17130879    -0.74720
O756        O  0.36081908  0.65918623  0.12512980    -0.74790
Ni757      Ni  0.32958941  0.59200967  0.10721222     1.25410
Ni758      Ni  0.32400845  0.63551975  0.14857439     1.25360
C759        C  0.37569940  0.64671212  0.09884108     0.87480
C760        C  0.28942700  0.57499649  0.16411903     0.87410
C761        C  0.28781574  0.65026842  0.08809276     0.87440
C762        C  0.37488404  0.58452347  0.16331575     0.87610
O763        O  0.58929737  0.35876912  0.11551889    -0.74700
O764        O  0.64051894  0.29113388  0.06340486    -0.74730
O765        O  0.58613375  0.29206090  0.11732396    -0.74790
O766        O  0.63895125  0.35798905  0.06709154    -0.74830
O767        O  0.68298260  0.35615070  0.10590306    -0.74770
O768        O  0.62976272  0.28960307  0.15598450    -0.74740
O769        O  0.68556129  0.28997939  0.10049915    -0.74720
O770        O  0.63341155  0.35566504  0.15442188    -0.74790
Ni771      Ni  0.61209547  0.32412490  0.08944971     1.25410
Ni772      Ni  0.65962352  0.32159609  0.13059283     1.25360
C773        C  0.60375062  0.36884226  0.14277246     0.87480
C774        C  0.67483299  0.28702776  0.06972920     0.87410
C775        C  0.59570308  0.28684970  0.14815631     0.87440
C776        C  0.66879649  0.36890556  0.07923347     0.87610
O777        O  0.62695246  0.67290920  0.85987847    -0.74700
O778        O  0.67959304  0.62448848  0.79082287    -0.74730
O779        O  0.62030471  0.67842551  0.79483750    -0.74790
O780        O  0.67974203  0.62534495  0.85675170    -0.74830
O781        O  0.63774570  0.58502302  0.85740974    -0.74770
O782        O  0.57927827  0.63801565  0.79406076    -0.74740
O783        O  0.63832364  0.58434822  0.79191164    -0.74720
O784        O  0.58498957  0.63276226  0.85967443    -0.74790
Ni785      Ni  0.65319598  0.65179172  0.82445985     1.25410
Ni786      Ni  0.60847274  0.60863544  0.82473737     1.25360
C787        C  0.59798371  0.65991148  0.87167467     0.87480
C788        C  0.67187646  0.59274274  0.78789783     0.87410
C789        C  0.58663228  0.66992394  0.79129884     0.87440
C790        C  0.66744867  0.59748158  0.86819654     0.87610
O791        O  0.89461530  0.61953039  0.18169318    -0.74700
O792        O  0.96880996  0.58231406  0.12602461    -0.74730
O793        O  0.96497813  0.62655662  0.18349581    -0.74790
O794        O  0.89714046  0.57887094  0.12876022    -0.74830
O795        O  0.89113869  0.62449000  0.09523759    -0.74770
O796        O  0.96252211  0.66924606  0.14686359    -0.74740
O797        O  0.96234366  0.62513213  0.08969834    -0.74720
O798        O  0.89160726  0.66515646  0.14780740    -0.74790
Ni799      Ni  0.93247749  0.59998513  0.15616523     1.25410
Ni800      Ni  0.92754511  0.64774698  0.11857325     1.25360
C801        C  0.88165113  0.64882128  0.17388539     0.87480
C802        C  0.96945907  0.59365136  0.09571553     0.87410
C803        C  0.96635273  0.65856893  0.17726960     0.87440
C804        C  0.88186503  0.59477207  0.10415693     0.87610
O805        O  0.58089569  0.88453944  0.11381086    -0.74700
O806        O  0.63617197  0.94269869  0.17080720    -0.74730
O807        O  0.57794223  0.95054211  0.12029989    -0.74790
O808        O  0.63337857  0.87702230  0.15939408    -0.74830
O809        O  0.67592417  0.88196066  0.11952592    -0.74770
O810        O  0.62086547  0.95552427  0.08154064    -0.74740
O811        O  0.67740125  0.94767004  0.13030529    -0.74720
O812        O  0.62347532  0.88940851  0.07400623    -0.74790
Ni813      Ni  0.60550013  0.91444056  0.14282251     1.25410
Ni814      Ni  0.65092939  0.91960628  0.10000124     1.25360
C815        C  0.59431288  0.87650494  0.08531056     0.87480
C816        C  0.66907434  0.94892844  0.16153861     0.87410
C817        C  0.58704301  0.95725679  0.08990663     0.87440
C818        C  0.66274798  0.86690005  0.14498520     0.87610
O819        O  0.79032917  0.54224068  0.68275632    -0.81170
O820        O  0.71731647  0.43785171  0.78137390    -0.65850
O821        O  0.73568979  0.51718414  0.72410029    -1.12460
C822        C  0.80479603  0.54838547  0.81989491     1.05720
O823        O  0.70793629  0.47107420  0.82433012    -0.79060
O824        O  0.69945646  0.53838194  0.80580172    -0.66640
Ni825      Ni  0.75552433  0.50725272  0.68065774     1.34870
C826        C  0.70249656  0.56491564  0.78738950     0.84460
O827        O  0.68621448  0.46387174  0.71654676    -0.79600
O828        O  0.71940841  0.47344683  0.67109845    -0.89880
C829        C  0.71532217  0.44154860  0.81340065     0.84030
O830        O  0.79391917  0.47600818  0.69748499    -0.68080
O831        O  0.77290463  0.54510051  0.83213639    -0.87370
C832        C  0.79160309  0.44975786  0.71604945     0.84860
C833        C  0.68840378  0.46760030  0.68409278     1.06430
H834        H  0.78037421  0.48261849  0.78431550     0.38230
O835        O  0.75885951  0.49711322  0.78151950    -1.10030
O836        O  0.73234204  0.56920816  0.77158653    -0.66680
Ni837      Ni  0.77035277  0.53656706  0.75499860     1.26350
O838        O  0.76281125  0.44542447  0.73340355    -0.66910
O839        O  0.80831541  0.54970583  0.78777308    -0.79200
C840        C  0.78519253  0.57176818  0.69442470     0.84250
O841        O  0.77930510  0.57522391  0.72566818    -0.66370
Ni842      Ni  0.73916473  0.50886140  0.82454801     1.27450
Ni843      Ni  0.72439493  0.47715507  0.75054809     1.26060
H844        H  0.71414685  0.53172185  0.72171319     0.38790
O845        O  0.97699973  0.03921416  0.58733868    -0.81170
O846        O  0.03961973  0.93886055  0.47425207    -0.65850
O847        O  0.02165415  0.01435521  0.53538251    -1.12460
C848        C  0.94217791  0.04502547  0.44702944     1.05720
O849        O  0.04318696  0.97324019  0.43077399    -0.79060
O850        O  0.04875436  0.03925521  0.45191443    -0.66640
Ni851      Ni  0.00747499  0.00016741  0.57959307     1.34870
C852        C  0.04523961  0.06485753  0.47134742     0.84460
O853        O  0.07500674  0.96213973  0.53457637    -0.79600
O854        O  0.04124217  0.96265097  0.57940019    -0.89880
C855        C  0.03934791  0.94347757  0.44243731     0.84030
O856        O  0.96622820  0.97348598  0.56291902    -0.68080
O857        O  0.97387367  0.04675155  0.43421129    -0.87370
C858        C  0.96819275  0.94797947  0.54300666     0.84860
C859        C  0.07300740  0.96330077  0.56665874     1.06430
H860        H  0.97386460  0.98143834  0.47737257     0.38230
O861        O  0.99435638  0.99633591  0.47923654    -1.10030
O862        O  0.01638043  0.06797127  0.48940016    -0.66680
Ni863      Ni  0.98246539  0.03382097  0.50861855     1.26350
O864        O  0.99716953  0.94337337  0.52537679    -0.66910
O865        O  0.93986281  0.04591809  0.47927862    -0.79200
C866        C  0.97455276  0.06813388  0.57312515     0.84250
O867        O  0.97346296  0.07077056  0.54093872    -0.66370
Ni868      Ni  0.00956566  0.01051641  0.43533924     1.27450
Ni869      Ni  0.03261267  0.97609419  0.50612329     1.26060
H870        H  0.04216844  0.02927841  0.53658402     0.38790
C871        C  0.48921519  0.03493350  0.71802365     0.02860
C872        C  0.50799993  0.00932949  0.70107477    -0.13290
C873        C  0.53736869  0.99250346  0.71619549     0.00360
C874        C  0.54880160  0.00148616  0.74816602    -0.11820
C875        C  0.53061955  0.02799592  0.76478830     0.02850
C876        C  0.50013643  0.04423431  0.75012915    -0.11240
H877        H  0.49989691  0.00257476  0.67581535     0.08440
H878        H  0.57235100  0.98876227  0.75960744     0.05970
H879        H  0.48613637  0.06490418  0.76294804     0.05820
C880        C  0.73047234  0.99134471  0.51768412     0.02860
C881        C  0.72252048  0.00126447  0.48471044    -0.13290
C882        C  0.74104647  0.02849362  0.47043097     0.00360
C883        C  0.76756679  0.04486704  0.48888990    -0.11820
C884        C  0.77155581  0.03775290  0.52278285     0.02850
C885        C  0.75297115  0.01110767  0.53736043    -0.11240
H886        H  0.70122884  0.98870054  0.47101566     0.08440
H887        H  0.78274025  0.06532668  0.47759792     0.05970
H888        H  0.75667843  0.00529693  0.56379811     0.05820
C889        C  0.51209134  0.20177415  0.53369585     0.02860
C890        C  0.51613370  0.23504227  0.54433158    -0.13290
C891        C  0.54419577  0.25471788  0.53191182     0.00360
C892        C  0.56490688  0.24223576  0.50473227    -0.11820
C893        C  0.55852404  0.20986165  0.49181942     0.02850
C894        C  0.53373920  0.18885306  0.50801077    -0.11240
H895        H  0.49614942  0.24597455  0.56127887     0.08440
H896        H  0.58471630  0.25806439  0.49256757     0.05970
H897        H  0.52862365  0.16368449  0.49842528     0.05820
O898        O  0.63201402  0.17084114  0.34838621    -0.74700
O899        O  0.67760460  0.11611480  0.27986631    -0.74730
O900        O  0.61885485  0.16894510  0.28338484    -0.74790
O901        O  0.68406231  0.12229166  0.34533008    -0.74830
O902        O  0.64206724  0.08281903  0.35332371    -0.74770
O903        O  0.57884244  0.12785475  0.28918307    -0.74740
O904        O  0.63760120  0.07571913  0.28861940    -0.74720
O905        O  0.58977110  0.13154790  0.35511585    -0.74790
Ni906      Ni  0.65452307  0.14599402  0.31298263     1.25410
Ni907      Ni  0.61031663  0.10309754  0.32096496     1.25360
C908        C  0.60436594  0.15941803  0.36388910     0.87480
C909        C  0.67031395  0.08422637  0.28072573     0.87410
C910        C  0.58552030  0.15900891  0.28191556     0.87440
C911        C  0.67295789  0.09547876  0.35997715     0.87610
O912        O  0.36444904  0.12631276  0.65464724    -0.74700
O913        O  0.29199536  0.18133362  0.61041239    -0.74730
O914        O  0.29351270  0.12775956  0.66073297    -0.74790
O915        O  0.36421682  0.17344776  0.60743295    -0.74830
O916        O  0.35961877  0.13325535  0.56844687    -0.74770
O917        O  0.28947432  0.08741726  0.62254366    -0.74740
O918        O  0.28839874  0.14289861  0.57034103    -0.74720
O919        O  0.36047203  0.08576556  0.61593151    -0.74790
Ni920      Ni  0.32769919  0.15376164  0.63467166     1.25410
Ni921      Ni  0.32296083  0.11097084  0.59273140     1.25360
C922        C  0.37509211  0.09800044  0.64227527     0.87480
C923        C  0.28596121  0.17433206  0.57958713     0.87410
C924        C  0.28840622  0.09627771  0.65357701     0.87440
C925        C  0.37553043  0.15877127  0.58069514     0.87610
C926        C  0.71038957  0.27623769  0.72861851     0.02860
C927        C  0.74177618  0.26594471  0.71175168    -0.13290
C928        C  0.76331322  0.23980754  0.72473797     0.00360
C929        C  0.75556480  0.22550747  0.75581549    -0.11820
C930        C  0.72301629  0.23464701  0.77192552     0.02850
C931        C  0.70039047  0.26047697  0.75841612    -0.11240
H932        H  0.74834327  0.27702504  0.68755793     0.08440
H933        H  0.77377356  0.20609414  0.76629440     0.05970
H934        H  0.67467094  0.26742115  0.77024729     0.05820
O935        O  0.66097297  0.39125074  0.62603079    -0.74700
O936        O  0.61077860  0.45885884  0.57163280    -0.74730
O937        O  0.66543808  0.45779443  0.62721286    -0.74790
O938        O  0.61339262  0.39298438  0.57547853    -0.74830
O939        O  0.56673283  0.39694921  0.61123962    -0.74770
O940        O  0.62301719  0.45802612  0.66664398    -0.74740
O941        O  0.56796516  0.46409556  0.61037151    -0.74720
O942        O  0.61411837  0.39308507  0.66202646    -0.74790
Ni943      Ni  0.63942277  0.42620356  0.59877167     1.25410
Ni944      Ni  0.59115893  0.42924675  0.63886132     1.25360
C945        C  0.64450214  0.38051965  0.65213659     0.87480
C946        C  0.57694585  0.46488136  0.57911103     0.87410
C947        C  0.65700316  0.46129976  0.65850627     0.87440
C948        C  0.58223699  0.38353142  0.58546248     0.87610
O949        O  0.59051706  0.86649409  0.62333250    -0.74700
O950        O  0.65142731  0.79921381  0.57997295    -0.74730
O951        O  0.59484971  0.80017659  0.63269866    -0.74790
O952        O  0.64036474  0.86474450  0.57552715    -0.74830
O953        O  0.68535022  0.86977066  0.61300056    -0.74770
O954        O  0.63505016  0.80885415  0.67318399    -0.74740
O955        O  0.69281883  0.80317172  0.62027856    -0.74720
O956        O  0.63530673  0.87420268  0.66054483    -0.74790
Ni957      Ni  0.61773579  0.83133769  0.60164739     1.25410
Ni958      Ni  0.66391749  0.83816126  0.64332152     1.25360
C959        C  0.60440420  0.88260967  0.64779614     0.87480
C960        C  0.68524379  0.79747220  0.58924097     0.87410
C961        C  0.60232293  0.80096146  0.66434854     0.87440
C962        C  0.66927261  0.87883439  0.58561861     0.87610
O963        O  0.88518474  0.14562216  0.66748859    -0.74700
O964        O  0.95884955  0.09033840  0.62681056    -0.74730
O965        O  0.95620363  0.14118512  0.67633496    -0.74790
O966        O  0.88799917  0.09673361  0.62227831    -0.74830
O967        O  0.89406184  0.13524226  0.58135796    -0.74770
O968        O  0.96173710  0.18208902  0.63814983    -0.74740
O969        O  0.96510006  0.12857097  0.58608389    -0.74720
O970        O  0.89143819  0.18480522  0.62708428    -0.74790
Ni971      Ni  0.92253754  0.11711667  0.64969789     1.25410
Ni972      Ni  0.92938907  0.15921085  0.60665250     1.25360
C973        C  0.87595433  0.17385430  0.65344904     0.87480
C974        C  0.96707247  0.09750507  0.59630920     0.87410
C975        C  0.96257294  0.17216532  0.66913446     0.87440
C976        C  0.88000758  0.10821284  0.59325225     0.87610
O977        O  0.63002694  0.17193589  0.89102418    -0.74700
O978        O  0.57842924  0.11261692  0.95079524    -0.74730
O979        O  0.63203900  0.16905929  0.95636462    -0.74790
O980        O  0.58220756  0.12135404  0.88586497    -0.74830
O981        O  0.62922018  0.08405955  0.88346597    -0.74770
O982        O  0.67599262  0.12927570  0.95524840    -0.74740
O983        O  0.62524791  0.07586733  0.94864578    -0.74720
O984        O  0.67647631  0.13401967  0.88982726    -0.74790
Ni985      Ni  0.60380012  0.14514712  0.92207319     1.25410
Ni986      Ni  0.65327439  0.10445785  0.91991402     1.25360
C987        C  0.66138370  0.16206856  0.88038096     0.87480
C988        C  0.59106953  0.08176976  0.95343497     0.87410
C989        C  0.66586151  0.16013857  0.96125318     0.87440
C990        C  0.59839273  0.09550874  0.87280829     0.87610
C991        C  0.05216057  0.76655642  0.53690102     0.02860
C992        C  0.02721465  0.75389170  0.55979416    -0.13290
C993        C  0.00753211  0.72559067  0.55206801     0.00360
C994        C  0.01276729  0.70937804  0.52150081    -0.11820
C995        C  0.03743811  0.72195476  0.49825194     0.02850
C996        C  0.05781998  0.75051379  0.50609699    -0.11240
H997        H  0.02153385  0.76742740  0.58286114     0.08440
H998        H  0.99640771  0.68767578  0.51524645     0.05970
H999        H  0.07764526  0.76014771  0.48859893     0.05820
O1000       O  0.11646073  0.57359457  0.37029576    -0.74700
O1001       O  0.07073158  0.63033820  0.30168063    -0.74730
O1002       O  0.13047692  0.57540664  0.30636995    -0.74790
O1003       O  0.06431001  0.62286062  0.36745022    -0.74830
O1004       O  0.10716716  0.66159247  0.37513149    -0.74770
O1005       O  0.16967961  0.61693585  0.31174226    -0.74740
O1006       O  0.11127384  0.67011968  0.31052158    -0.74720
O1007       O  0.15911785  0.61257446  0.37663124    -0.74790
Ni1008     Ni  0.09390570  0.59919433  0.33503341     1.25410
Ni1009     Ni  0.13839146  0.64169912  0.34290126     1.25360
C1010       C  0.14531846  0.58404712  0.38453551     0.87480
C1011       C  0.07855643  0.66226576  0.30189263     0.87410
C1012       C  0.16396913  0.58537766  0.30562082     0.87440
C1013       C  0.07627237  0.64921439  0.38218788     0.87610
C1014       C  0.26783868  0.71914870  0.73880910     0.02860
C1015       C  0.26190866  0.75268507  0.72857128    -0.13290
C1016       C  0.23670300  0.77321698  0.74554731     0.00360
C1017       C  0.21924657  0.76098874  0.77414869    -0.11820
C1018       C  0.22478910  0.72701652  0.78369186     0.02850
C1019       C  0.24802316  0.70590743  0.76513885    -0.11240
H1020       H  0.27528690  0.76215985  0.70626455     0.08440
H1021       H  0.20046973  0.77740845  0.78779282     0.05970
H1022       H  0.25084840  0.67911057  0.77138742     0.05820
C1023       C  0.24967488  0.52873122  0.54821157     0.02860
C1024       C  0.23378702  0.54233725  0.51904929    -0.13290
C1025       C  0.20873930  0.52335237  0.50112092     0.00360
C1026       C  0.20104820  0.49057026  0.51135021    -0.11820
C1027       C  0.21501090  0.47799167  0.54155946     0.02850
C1028       C  0.23944238  0.49696807  0.56010277    -0.11240
H1029       H  0.24147885  0.56720662  0.51002950     0.08440
H1030       H  0.18225245  0.47558758  0.49685077     0.05970
H1031       H  0.25055564  0.48712257  0.58350430     0.05820
O1032       O  0.38672844  0.61453460  0.59064058    -0.74700
O1033       O  0.45789798  0.66676305  0.63610793    -0.74730
O1034       O  0.45816785  0.61627591  0.58526163    -0.74790
O1035       O  0.38645269  0.66154568  0.63787018    -0.74830
O1036       O  0.39281642  0.62162423  0.67773727    -0.74770
O1037       O  0.46267543  0.57417241  0.62244467    -0.74740
O1038       O  0.46425455  0.62732605  0.67584760    -0.74720
O1039       O  0.39145796  0.57445177  0.63056906    -0.74790
Ni1040     Ni  0.42294760  0.64121018  0.61109442     1.25410
Ni1041     Ni  0.42922476  0.59782947  0.65314161     1.25360
C1042       C  0.37645112  0.58680308  0.60400554     0.87480
C1043       C  0.46665811  0.65868112  0.66644723     0.87410
C1044       C  0.46416428  0.58466161  0.59176469     0.87440
C1045       C  0.37685733  0.64820668  0.66556333     0.87610
C1046       C  0.02553575  0.48413796  0.74223958     0.02860
C1047       C  0.04242907  0.49457177  0.77169186    -0.13290
C1048       C  0.02474902  0.51882525  0.79164513     0.00360
C1049       C  0.99017980  0.53138884  0.78298675    -0.11820
C1050       C  0.97547045  0.52371052  0.75197935     0.02850
C1051       C  0.99313908  0.50009899  0.73139159    -0.11240
H1052       H  0.06931955  0.48458000  0.77841565     0.08440
H1053       H  0.97695106  0.55071674  0.79836586     0.05970
H1054       H  0.98245035  0.49474200  0.70666472     0.05820
O1055       O  0.16266070  0.35436959  0.62871510    -0.74700
O1056       O  0.10795591  0.29457385  0.68597126    -0.74730
O1057       O  0.16299104  0.28813539  0.62949789    -0.74790
O1058       O  0.11609805  0.36009312  0.67934855    -0.74830
O1059       O  0.06859227  0.36064840  0.64396532    -0.74770
O1060       O  0.11673025  0.28958080  0.59358430    -0.74740
O1061       O  0.06348977  0.29371656  0.64819714    -0.74720
O1062       O  0.11544550  0.35574867  0.59309004    -0.74790
Ni1063     Ni  0.13912129  0.32303014  0.65739591     1.25410
Ni1064     Ni  0.08935129  0.32405766  0.61847826     1.25360
C1065       C  0.14656921  0.36601246  0.60236430     0.87480
C1066       C  0.07354079  0.29142408  0.67904801     0.87410
C1067       C  0.15126558  0.28453897  0.59921202     0.87440
C1068       C  0.08584207  0.37296708  0.66890789     0.87610
O1069       O  0.87777326  0.64888095  0.60544871    -0.74700
O1070       O  0.80496914  0.59339301  0.64243979    -0.74730
O1071       O  0.80762684  0.64387284  0.59374588    -0.74790
O1072       O  0.87476793  0.60014160  0.65235086    -0.74830
O1073       O  0.86342825  0.63918958  0.69181399    -0.74770
O1074       O  0.79695912  0.68446470  0.63135311    -0.74740
O1075       O  0.79346482  0.63168562  0.68206158    -0.74720
O1076       O  0.86722265  0.68827092  0.64470100    -0.74790
Ni1077     Ni  0.84122639  0.62024227  0.62203451     1.25410
Ni1078     Ni  0.82904170  0.66247937  0.66386116     1.25360
C1079       C  0.88445377  0.67738494  0.61893534     0.87480
C1080       C  0.79333080  0.60080090  0.67177358     0.87410
C1081       C  0.79765338  0.67430512  0.60082790     0.87440
C1082       C  0.87913563  0.61179769  0.68180359     0.87610
O1083       O  0.09963023  0.89299030  0.62551888    -0.74700
O1084       O  0.15378245  0.95901222  0.67468048    -0.74730
O1085       O  0.09882099  0.95997846  0.62213082    -0.74790
O1086       O  0.14885888  0.89313443  0.67470175    -0.74830
O1087       O  0.19552994  0.89236996  0.63863690    -0.74770
O1088       O  0.13883172  0.95388667  0.58101288    -0.74740
O1089       O  0.19513250  0.95983484  0.63412079    -0.74720
O1090       O  0.14614464  0.88842199  0.58958870    -0.74790
Ni1091     Ni  0.12360683  0.92726121  0.65057811     1.25410
Ni1092     Ni  0.17074670  0.92452995  0.60937642     1.25360
C1093       C  0.11514338  0.87902677  0.60016357     0.87480
C1094       C  0.18688305  0.96381697  0.66522648     0.87410
C1095       C  0.10566165  0.96013244  0.59059995     0.87440
C1096       C  0.17956824  0.88115778  0.66495530     0.87610
O1097       O  0.12820438  0.66809230  0.90204690    -0.74700
O1098       O  0.07814805  0.62110501  0.97212201    -0.74730
O1099       O  0.13542371  0.67371137  0.96660440    -0.74790
O1100       O  0.07814739  0.62068620  0.90595548    -0.74830
O1101       O  0.12275506  0.58092132  0.90557137    -0.74770
O1102       O  0.17741851  0.63232652  0.96901421    -0.74740
O1103       O  0.11988074  0.57960913  0.97063169    -0.74720
O1104       O  0.17283706  0.62846914  0.90329576    -0.74790
Ni1105     Ni  0.10331063  0.64738602  0.93773611     1.25410
Ni1106     Ni  0.14993223  0.60387841  0.93821239     1.25360
C1107       C  0.15828709  0.65566801  0.89093862     0.87480
C1108       C  0.08614906  0.58912317  0.97481106     0.87410
C1109       C  0.16936389  0.66443395  0.97019150     0.87440
C1110       C  0.09232832  0.59307160  0.89473907     0.87610
C1111       C  0.74409972  0.28628353  0.26506260     0.02860
C1112       C  0.75438724  0.29074170  0.23201600    -0.13290
C1113       C  0.78707547  0.27605613  0.22096648     0.00360
C1114       C  0.80652636  0.25272146  0.24110924    -0.11820
C1115       C  0.79417741  0.24645347  0.27357466     0.02850
C1116       C  0.76417255  0.26451083  0.28603308    -0.11240
H1117       H  0.73875475  0.30775538  0.21565145     0.08440
H1118       H  0.83138510  0.24044610  0.23202952     0.05970
H1119       H  0.75547069  0.26038936  0.31171258     0.05820
O1120       O  0.60407007  0.42384438  0.36532558    -0.74700
O1121       O  0.53870928  0.36781725  0.31567745    -0.74730
O1122       O  0.53376770  0.42128396  0.36992237    -0.74790
O1123       O  0.60882718  0.37633668  0.31794946    -0.74830
O1124       O  0.61356025  0.33625492  0.35777422    -0.74770
O1125       O  0.53811619  0.37973642  0.40756062    -0.74740
O1126       O  0.54274228  0.32951181  0.35664690    -0.74720
O1127       O  0.60888122  0.38336994  0.40490130    -0.74790
Ni1128     Ni  0.56991640  0.39888411  0.34059847     1.25410
Ni1129     Ni  0.57524578  0.35573152  0.38306040     1.25360
C1130       C  0.61743925  0.41215722  0.39277827     0.87480
C1131       C  0.53791651  0.33647219  0.32538046     0.87410
C1132       C  0.53245020  0.41134356  0.40088378     0.87440
C1133       C  0.62364457  0.34912490  0.33001246     0.87610
C1134       C  0.78207808  0.45587326  0.50356033     0.02860
C1135       C  0.74867356  0.44637875  0.49014421    -0.13290
C1136       C  0.73025785  0.46837355  0.46805862     0.00360
C1137       C  0.74455161  0.49952817  0.45997522    -0.11820
C1138       C  0.77902326  0.50767059  0.47121868     0.02850
C1139       C  0.79844126  0.48567983  0.49254829    -0.11240
H1140       H  0.73611790  0.42305154  0.49816938     0.08440
H1141       H  0.72954393  0.51678580  0.44327536     0.05970
H1142       H  0.82482620  0.49267089  0.50236138     0.05820
C1143       C  0.97003057  0.51686341  0.29065480     0.02860
C1144       C  0.99865388  0.50136336  0.30848052    -0.13290
C1145       C  0.01406198  0.47095856  0.29745398     0.00360
C1146       C  0.00171718  0.45623465  0.26802853    -0.11820
C1147       C  0.97319937  0.47184369  0.24979930     0.02850
C1148       C  0.95778242  0.50265546  0.26087734    -0.11240
H1149       H  0.00812841  0.51241276  0.33170280     0.08440
H1150       H  0.01432309  0.43269973  0.25937568     0.05970
H1151       H  0.93527520  0.51461486  0.24723674     0.05820
C1152       C  0.95316153  0.29000631  0.51762546     0.02860
C1153       C  0.97697617  0.31020798  0.49951804    -0.13290
C1154       C  0.99606806  0.29632314  0.47250024     0.00360
C1155       C  0.98857351  0.26376180  0.46164489    -0.11820
C1156       C  0.95997512  0.24641633  0.47592849     0.02850
C1157       C  0.94350088  0.25848787  0.50498371    -0.11240
H1158       H  0.98229274  0.33586831  0.50742109     0.08440
H1159       H  0.00460568  0.25183785  0.44198486     0.05970
H1160       H  0.92348576  0.24323409  0.51771388     0.05820
O1161       O  0.15040151  0.41915257  0.39073654    -0.74700
O1162       O  0.21550807  0.35552172  0.43665089    -0.74730
O1163       O  0.22150489  0.41232099  0.38593345    -0.74790
O1164       O  0.14570234  0.37011904  0.43607891    -0.74830
O1165       O  0.14031148  0.33134708  0.39579149    -0.74770
O1166       O  0.21517960  0.37410182  0.34595290    -0.74740
O1167       O  0.21133778  0.31928813  0.39462646    -0.74720
O1168       O  0.14389443  0.38026170  0.35061617    -0.74790
Ni1169     Ni  0.18494324  0.39057823  0.41396362     1.25410
Ni1170     Ni  0.17847081  0.34978136  0.37024289     1.25360
C1171       C  0.13478310  0.40845194  0.36424829     0.87480
C1172       C  0.21566382  0.32442929  0.42612622     0.87410
C1173       C  0.22214812  0.40476878  0.35452220     0.87440
C1174       C  0.12923723  0.34540468  0.42286912     0.87610
O1175       O  0.90592840  0.37131579  0.64410355    -0.74700
O1176       O  0.85432017  0.43064439  0.70475904    -0.74730
O1177       O  0.91293222  0.37912497  0.70893310    -0.74790
O1178       O  0.85401768  0.41925760  0.63997791    -0.74830
O1179       O  0.81125537  0.38040985  0.64779107    -0.74770
O1180       O  0.87370926  0.33761608  0.71516387    -0.74740
O1181       O  0.81402664  0.39050062  0.71420399    -0.74720
O1182       O  0.86325840  0.33238672  0.65121971    -0.74790
Ni1183     Ni  0.88331221  0.40164756  0.67508708     1.25410
Ni1184     Ni  0.83885394  0.35900259  0.68349973     1.25360
C1185       C  0.89182340  0.34282488  0.63673872     0.87480
C1186       C  0.82183254  0.42226856  0.71347525     0.87410
C1187       C  0.90703234  0.34779953  0.71581971     0.87440
C1188       C  0.82445202  0.40535779  0.63131886     0.87610
O1189       O  0.84688631  0.37485985  0.10692713    -0.74700
O1190       O  0.90711411  0.42882723  0.05055006    -0.74730
O1191       O  0.85322392  0.37634742  0.04149468    -0.74790
O1192       O  0.89582725  0.42294138  0.11480031    -0.74830
O1193       O  0.94126727  0.38409943  0.11665160    -0.74770
O1194       O  0.89425348  0.33420715  0.04599562    -0.74740
O1195       O  0.94995737  0.38809855  0.05103386    -0.74720
O1196       O  0.89182665  0.33544622  0.11107800    -0.74790
Ni1197     Ni  0.87423500  0.40216426  0.07743420     1.25410
Ni1198     Ni  0.92124647  0.35903529  0.08031005     1.25360
C1199       C  0.86029788  0.34717184  0.11911853     0.87480
C1200       C  0.94105300  0.41996479  0.04855958     0.87410
C1201       C  0.86142289  0.34444860  0.03861736     0.87440
C1202       C  0.92508196  0.41078594  0.12816002     0.87610
O1203       O  0.85963679  0.63824341  0.43165165    -0.74700
O1204       O  0.92076565  0.70102064  0.38748625    -0.74730
O1205       O  0.86205957  0.70411171  0.43649717    -0.74790
O1206       O  0.91310528  0.63516738  0.38708687    -0.74830
O1207       O  0.87176102  0.64033809  0.34578736    -0.74770
O1208       O  0.82197599  0.71096916  0.39501266    -0.74740
O1209       O  0.88143971  0.70538616  0.34511229    -0.74720
O1210       O  0.81809743  0.64455889  0.39067227    -0.74790
Ni1211     Ni  0.89044965  0.67036210  0.41223341     1.25410
Ni1212     Ni  0.84674593  0.67656040  0.36765188     1.25360
C1213       C  0.82998092  0.62994226  0.41737290     0.87480
C1214       C  0.91459013  0.70578674  0.35598662     0.87410
C1215       C  0.82936900  0.71175811  0.42665210     0.87440
C1216       C  0.89994893  0.62587889  0.35902497     0.87610
O1217       O  0.87558798  0.12070678  0.34137677    -0.74700
O1218       O  0.91690383  0.04669190  0.39124864    -0.74730
O1219       O  0.86481741  0.05545671  0.33642952    -0.74790
O1220       O  0.92320456  0.11331075  0.39105123    -0.74830
O1221       O  0.87709358  0.11940868  0.42739193    -0.74770
O1222       O  0.82207947  0.05656512  0.37579987    -0.74740
O1223       O  0.87663493  0.05388260  0.43169158    -0.74720
O1224       O  0.82872071  0.12310887  0.37723728    -0.74790
Ni1225     Ni  0.89678184  0.08297216  0.36372068     1.25410
Ni1226     Ni  0.84912225  0.08733860  0.40438964     1.25360
C1227       C  0.84572567  0.13428539  0.35156804     0.87480
C1228       C  0.90973705  0.04690192  0.42271055     0.87410
C1229       C  0.83111859  0.05244250  0.34470251     0.87440
C1230       C  0.90878354  0.12694339  0.41696433     0.87610
O1231       O  0.03855822  0.32947140  0.79746460    -0.81170
O1232       O  0.96999999  0.22796626  0.69484748    -0.65850
O1233       O  0.98692896  0.28570345  0.77172784    -1.12460
C1234       C  0.05433022  0.18782988  0.80345742     1.05720
O1235       O  0.95688679  0.18480053  0.72726203    -0.79060
O1236       O  0.94933436  0.20378006  0.79464308    -0.66640
Ni1237     Ni  0.00610052  0.32925251  0.75993965     1.34870
C1238       C  0.95361564  0.22274372  0.82038188     0.84460
O1239       O  0.93762845  0.29102374  0.71862439    -0.79600
O1240       O  0.97156686  0.33591813  0.72359691    -0.89880
C1241       C  0.96514086  0.19615540  0.69832740     0.84030
O1242       O  0.04618071  0.31151067  0.73147682    -0.68080
O1243       O  0.02197990  0.17666118  0.80233519    -0.87370
C1244       C  0.04390391  0.29136691  0.70655437     0.84860
C1245       C  0.93990482  0.32343961  0.72108159     1.06430
H1246       H  0.03118853  0.22279231  0.74028674     0.38230
O1247       O  0.00980042  0.22661587  0.75403557    -1.10030
O1248       O  0.98367236  0.23826640  0.82392235    -0.66680
Ni1249     Ni  0.02145519  0.25418323  0.79223693     1.26350
O1250       O  0.01478144  0.27455313  0.70254010    -0.66910
O1251       O  0.05874906  0.22007375  0.80599778    -0.79200
C1252       C  0.03443781  0.31680004  0.82654327     0.84250
O1253       O  0.03083089  0.28468865  0.82991072    -0.66370
Ni1254     Ni  0.98835082  0.18396322  0.76579579     1.27450
Ni1255     Ni  0.97619730  0.25814755  0.73308247     1.26060
H1256       H  0.96537365  0.28871049  0.78545928     0.38790
C1257       C  0.01678368  0.21418314  0.05143518     0.02860
C1258       C  0.02086938  0.20378442  0.01825345    -0.13290
C1259       C  0.03803956  0.22495444  0.99525441     0.00360
C1260       C  0.04964212  0.25671887  0.00530496    -0.11820
C1261       C  0.04918785  0.26464721  0.03896230     0.02850
C1262       C  0.03284419  0.24377377  0.06224776    -0.11240
H1263       H  0.01067458  0.17947181  0.01049755     0.08440
H1264       H  0.06297298  0.27347883  0.98768772     0.05970
H1265       H  0.03100854  0.25136521  0.08830865     0.05820
O1266       O  0.10012376  0.38447440  0.12363163    -0.74700
O1267       O  0.15331082  0.43821498  0.18612758    -0.74730
O1268       O  0.09684085  0.44991802  0.13569190    -0.74790
O1269       O  0.15065005  0.37346621  0.16990291    -0.74830
O1270       O  0.19589970  0.38278214  0.13371992    -0.74770
O1271       O  0.13637267  0.45485919  0.09404793    -0.74740
O1272       O  0.19392624  0.44950467  0.14656891    -0.74720
O1273       O  0.14544309  0.38954925  0.08645669    -0.74790
Ni1274     Ni  0.12369315  0.41215705  0.15543793     1.25410
Ni1275     Ni  0.16968154  0.42058556  0.11400748     1.25360
C1276       C  0.11553788  0.37673798  0.09589390     0.87480
C1277       C  0.18568792  0.44724669  0.17795222     0.87410
C1278       C  0.10330270  0.45787444  0.10499028     0.87440
C1279       C  0.18070777  0.36446054  0.15614059     0.87610
C1280       C  0.01285697  0.96106644  0.25523354     0.02860
C1281       C  0.98966358  0.97962104  0.23368272    -0.13290
C1282       C  0.98226392  0.01355260  0.24064758     0.00360
C1283       C  0.99808901  0.02827383  0.26832455    -0.11820
C1284       C  0.01452048  0.00780714  0.29286001     0.02850
C1285       C  0.02159755  0.97359596  0.28648260    -0.11240
H1286       H  0.97987321  0.96850899  0.21069394     0.08440
H1287       H  0.99719309  0.05565822  0.27055336     0.05970
H1288       H  0.03782536  0.95800743  0.30372710     0.05820
C1289       C  0.22961937  0.24117811  0.21700351     0.02860
C1290       C  0.26337972  0.22508639  0.21156659    -0.13290
C1291       C  0.27767735  0.20180024  0.23492126     0.00360
C1292       C  0.25698876  0.19272453  0.26271685    -0.11820
C1293       C  0.22231139  0.20747865  0.26753057     0.02850
C1294       C  0.20883138  0.23222165  0.24504785    -0.11240
H1295       H  0.27849845  0.23070257  0.18893148     0.08440
H1296       H  0.26740842  0.17344919  0.28006361     0.05970
H1297       H  0.18229162  0.24421380  0.24918843     0.05820
O1298       O  0.11451740  0.07694411  0.40392924    -0.74700
O1299       O  0.16210535  0.14002920  0.45955581    -0.74730
O1300       O  0.10825734  0.08554806  0.46765111    -0.74790
O1301       O  0.16168121  0.12661827  0.39510945    -0.74830
O1302       O  0.11556564  0.16425583  0.38775622    -0.74770
O1303       O  0.06330082  0.12363750  0.46084609    -0.74740
O1304       O  0.11662652  0.17769194  0.45196124    -0.74720
O1305       O  0.06834689  0.11416211  0.39609894    -0.74790
Ni1306     Ni  0.13841625  0.10616772  0.43279744     1.25410
Ni1307     Ni  0.08923700  0.14650624  0.42471043     1.25360
C1308       C  0.08389763  0.08519343  0.39086302     0.87480
C1309       C  0.15076515  0.17116831  0.45772101     0.87410
C1310       C  0.07368678  0.09315563  0.46900273     0.87440
C1311       C  0.14643325  0.15142993  0.37898310     0.87610
C1312       C  0.20658908  0.04464125  0.00757332     0.02860
C1313       C  0.18195384  0.02031814  0.01858807    -0.13290
C1314       C  0.18552439  0.00709973  0.05096786     0.00360
C1315       C  0.21193383  0.01887980  0.07268118    -0.11820
C1316       C  0.23792760  0.04037103  0.06060733     0.02850
C1317       C  0.23554120  0.05354762  0.02820857    -0.11240
H1318       H  0.16154820  0.01049237  0.00172457     0.08440
H1319       H  0.21523700  0.00781395  0.09756898     0.05970
H1320       H  0.25655235  0.07008761  0.01887031     0.05820
O1321       O  0.39845898  0.14698845  0.14174583    -0.74700
O1322       O  0.44989846  0.09560367  0.07336519    -0.74730
O1323       O  0.38334029  0.10218176  0.09518623    -0.74790
O1324       O  0.46779421  0.14663393  0.12342245    -0.74830
O1325       O  0.47683950  0.10927796  0.16434969    -0.74770
O1326       O  0.39499495  0.05948502  0.13109916    -0.74740
O1327       O  0.46519291  0.05687033  0.11173453    -0.74720
O1328       O  0.40838495  0.10436123  0.17827621    -0.74790
Ni1329     Ni  0.42552355  0.12443089  0.10682239     1.25410
Ni1330     Ni  0.43805261  0.08059538  0.14732722     1.25360
C1331       C  0.39295243  0.13259839  0.17025039     0.87480
C1332       C  0.45893843  0.06451575  0.08068494     0.87410
C1333       C  0.37388323  0.07541357  0.11036816     0.87440
C1334       C  0.47671124  0.14046136  0.15406847     0.87610
O1335       O  0.13228799  0.17008850  0.87026201    -0.74700
O1336       O  0.17550701  0.11934809  0.79972316    -0.74730
O1337       O  0.11924610  0.17196849  0.80646680    -0.74790
O1338       O  0.18480054  0.12226556  0.86502130    -0.74830
O1339       O  0.14271845  0.08267525  0.87221000    -0.74770
O1340       O  0.07933324  0.13078832  0.81102874    -0.74740
O1341       O  0.13567261  0.07823598  0.80712984    -0.74720
O1342       O  0.09003447  0.13057642  0.87591262    -0.74790
Ni1343     Ni  0.15452494  0.14727409  0.83426970     1.25410
Ni1344     Ni  0.11029177  0.10402630  0.84101175     1.25360
C1345       C  0.10407935  0.15857514  0.88461851     0.87480
C1346       C  0.16743098  0.08773404  0.79820683     0.87410
C1347       C  0.08595009  0.16236044  0.80613323     0.87440
C1348       C  0.17355196  0.09536331  0.87940099     0.87610
O1349       O  0.08011730  0.86818838  0.14407688    -0.74700
O1350       O  0.13030466  0.80621226  0.08482825    -0.74730
O1351       O  0.07656951  0.80163322  0.13712403    -0.74790
O1352       O  0.12728673  0.87129884  0.09410329    -0.74830
O1353       O  0.17447659  0.86493575  0.12972286    -0.74770
O1354       O  0.11654374  0.80047365  0.17891421    -0.74740
O1355       O  0.17162040  0.79770505  0.12512814    -0.74720
O1356       O  0.12739157  0.86514223  0.17966996    -0.74790
Ni1357     Ni  0.10184140  0.83628281  0.11359486     1.25410
Ni1358     Ni  0.14949129  0.83074442  0.15456623     1.25360
C1359       C  0.09626548  0.87706865  0.17117183     0.87480
C1360       C  0.16304870  0.79770140  0.09382737     0.87410
C1361       C  0.08339067  0.79711112  0.16837626     0.87440
C1362       C  0.15776400  0.88051060  0.10561242     0.87610
O1363       O  0.86590242  0.12347443  0.17950996    -0.74700
O1364       O  0.80574442  0.17617325  0.11804077    -0.74730
O1365       O  0.79492707  0.12383207  0.17148478    -0.74790
O1366       O  0.87506136  0.17061294  0.13310662    -0.74830
O1367       O  0.88138615  0.13045134  0.09404117    -0.74770
O1368       O  0.80088124  0.08445495  0.13228889    -0.74740
O1369       O  0.81130459  0.13518593  0.08053028    -0.74720
O1370       O  0.87168346  0.08346090  0.14020792    -0.74790
Ni1371     Ni  0.83394439  0.15018975  0.15184992     1.25410
Ni1372     Ni  0.84054679  0.10696724  0.11022393     1.25360
C1373       C  0.87990161  0.09556096  0.16872544     0.87480
C1374       C  0.80706915  0.16692335  0.08706138     0.87410
C1375       C  0.79271503  0.09253947  0.16267869     0.87440
C1376       C  0.89210991  0.15733039  0.10848541     0.87610
C1377       C  0.27445239  0.07934235  0.09131463    -0.20580
C1378       C  0.26993007  0.04632788  0.08043644    -0.07150
C1379       C  0.29778044  0.02112998  0.08429733     0.13720
C1380       C  0.33139425  0.03066819  0.09710076    -0.20630
C1381       C  0.33713709  0.06471451  0.10452096    -0.07150
C1382       C  0.30810433  0.08926021  0.10289650     0.13710
C1383       C  0.31229913  0.12624270  0.11179060    -0.23980
H1384       H  0.25228915  0.09795275  0.08827258     0.15000
H1385       H  0.35389119  0.01226594  0.09880615     0.15030
C1386       C  0.29292996  0.98505404  0.07288034    -0.23930
H1387       H  0.32979126  0.13915686  0.09324495     0.05240
H1388       H  0.28561464  0.14031334  0.11191242     0.08460
H1389       H  0.32422311  0.12835237  0.13709998     0.08460
H1390       H  0.28596716  0.98478090  0.04576507     0.08450
H1391       H  0.27074576  0.97313792  0.08736069     0.08450
H1392       H  0.31820664  0.96929281  0.07670055     0.05220
C1393       C  0.14744355  0.94031865  0.10388209    -0.20580
C1394       C  0.16918724  0.91267001  0.09326434    -0.07150
C1395       C  0.19131082  0.91508638  0.06478491     0.13720
C1396       C  0.19242007  0.94623793  0.04810468    -0.20630
C1397       C  0.17173185  0.97431082  0.05967153    -0.07150
C1398       C  0.14854791  0.97136099  0.08740123     0.13710
C1399       C  0.12570578  0.00108604  0.09980280    -0.23980
H1400       H  0.12834094  0.93711122  0.12430580     0.15000
H1401       H  0.21117980  0.94938831  0.02736505     0.15030
C1402       C  0.21325589  0.88496537  0.05213747    -0.23930
H1403       H  0.10850809  0.99389982  0.12151594     0.05240
H1404       H  0.10740006  0.01054586  0.07936175     0.08460
H1405       H  0.14354101  0.02191834  0.10788675     0.08460
H1406       H  0.19462875  0.86437079  0.04506319     0.08450
H1407       H  0.23223943  0.87550931  0.07207385     0.08450
H1408       H  0.22964647  0.89161826  0.02973999     0.05220
C1409       C  0.20284863  0.03502724  0.94698883    -0.20580
C1410       C  0.20438528  0.05820210  0.97348983    -0.07150
C1411       C  0.20359354  0.09355791  0.96688403     0.13720
C1412       C  0.20020716  0.10462720  0.93381802    -0.20630
C1413       C  0.19345576  0.08160615  0.90815283    -0.07150
C1414       C  0.19648072  0.04639297  0.91425957     0.13710
C1415       C  0.19222558  0.02098881  0.88656530    -0.23980
H1416       H  0.20487213  0.00796374  0.95218582     0.15000
H1417       H  0.19821421  0.13164614  0.92871928     0.15030
C1418       C  0.20273700  0.12045301  0.99375797    -0.23930
H1419       H  0.19712948  0.99450947  0.89562406     0.05240
H1420       H  0.21204953  0.02616148  0.86624900     0.08460
H1421       H  0.16409845  0.02274175  0.87638657     0.08460
H1422       H  0.22771278  0.13579696  0.99202302     0.08450
H1423       H  0.20058244  0.11012057  0.01951402     0.08450
H1424       H  0.17845046  0.13754478  0.98990323     0.05220
C1425       C  0.17209922  0.20046261  0.34975356    -0.20580
C1426       C  0.16455208  0.16573462  0.34982116    -0.07150
C1427       C  0.17347295  0.14551731  0.32187020     0.13720
C1428       C  0.19090526  0.16043886  0.29462332    -0.20630
C1429       C  0.19980630  0.19486924  0.29501905    -0.07150
C1430       C  0.19013170  0.21531452  0.32267330     0.13710
C1431       C  0.20018190  0.25216956  0.32437362    -0.23980
H1432       H  0.16476657  0.21571751  0.37137133     0.15000
H1433       H  0.19840913  0.14505317  0.27313819     0.15030
C1434       C  0.16427648  0.10844317  0.32056751    -0.23930
H1435       H  0.19193169  0.26375892  0.34860185     0.05240
H1436       H  0.18623017  0.26686218  0.30404126     0.08460
H1437       H  0.23021357  0.25445642  0.32177185     0.08460
H1438       H  0.13442709  0.10550853  0.32409071     0.08450
H1439       H  0.17939121  0.09429207  0.34059620     0.08450
H1440       H  0.17193929  0.09688425  0.29616802     0.05220
C1441       C  0.37124325  0.18236200  0.20135879    -0.20580
C1442       C  0.36720755  0.14804899  0.19358963    -0.07150
C1443       C  0.33674755  0.13014387  0.20570446     0.13720
C1444       C  0.30935050  0.14819472  0.22248477    -0.20630
C1445       C  0.31156941  0.18325572  0.22700683    -0.07150
C1446       C  0.34378236  0.20024406  0.21847710     0.13710
C1447       C  0.34926273  0.23695232  0.22740457    -0.23980
H1448       H  0.39533744  0.19542846  0.19296285     0.15000
H1449       H  0.28460725  0.13530400  0.22948526     0.15030
C1450       C  0.32998411  0.09301592  0.19913554    -0.23930
H1451       H  0.37711906  0.24520179  0.22068647     0.05240
H1452       H  0.34577398  0.24024330  0.25484520     0.08460
H1453       H  0.32949119  0.25392481  0.21397436     0.08460
H1454       H  0.35079209  0.08022524  0.18342595     0.08450
H1455       H  0.32871130  0.07908660  0.22339598     0.08450
H1456       H  0.30340526  0.09053407  0.18596841     0.05220
C1457       C  0.02830677  0.06631609  0.36455730    -0.20580
C1458       C  0.06579720  0.06098664  0.36983454    -0.07150
C1459       C  0.08486639  0.03396549  0.35380696     0.13720
C1460       C  0.06660614  0.01599786  0.32954060    -0.20630
C1461       C  0.02991604  0.02351762  0.32212835    -0.07150
C1462       C  0.00993544  0.04789280  0.34071056     0.13710
C1463       C  0.96951450  0.05474899  0.33596255    -0.23980
H1464       H  0.01344589  0.08578153  0.37843956     0.15000
H1465       H  0.08169399  0.99716845  0.31506820     0.15030
C1466       C  0.12434777  0.02422565  0.36084681    -0.23930
H1467       H  0.95939492  0.07321679  0.35462713     0.05240
H1468       H  0.95450700  0.03071899  0.33853457     0.08460
H1469       H  0.96279742  0.06690513  0.31166837     0.08460
H1470       H  0.12761981  0.01642848  0.38752435     0.08450
H1471       H  0.14218431  0.04580904  0.35506205     0.08450
H1472       H  0.13395069  0.00240838  0.34539387     0.05220
C1473       C  0.93649563  0.06235670  0.17075769    -0.20580
C1474       C  0.90686612  0.07682853  0.18829469    -0.07150
C1475       C  0.90274948  0.07119169  0.22289314     0.13720
C1476       C  0.92713789  0.04879809  0.23871047    -0.20630
C1477       C  0.95645183  0.03390794  0.22110514    -0.07150
C1478       C  0.96200840  0.04132098  0.18700224     0.13710
C1479       C  0.99517290  0.02850219  0.16810659    -0.23980
H1480       H  0.93978809  0.06780799  0.14424250     0.15000
H1481       H  0.92378701  0.04323562  0.26518864     0.15030
C1482       C  0.87283858  0.08811455  0.24312625    -0.23930
H1483       H  0.99605705  0.03927476  0.14230423     0.05240
H1484       H  0.99490282  0.00049322  0.16576627     0.08460
H1485       H  0.02040004  0.03597745  0.18138924     0.08460
H1486       H  0.84592226  0.08178463  0.23260759     0.08450
H1487       H  0.87598505  0.11608412  0.24267983     0.08450
H1488       H  0.87358096  0.07975791  0.26977628     0.05220
C1489       C  0.07301198  0.94274825  0.23583881    -0.20580
C1490       C  0.03623069  0.93506661  0.24081762    -0.07150
C1491       C  0.02106448  0.90731762  0.22513034     0.13720
C1492       C  0.04162307  0.88900369  0.20232621    -0.20630
C1493       C  0.07716678  0.89812661  0.19501502    -0.07150
C1494       C  0.09411988  0.92413511  0.21312136     0.13710
C1495       C  0.13350792  0.93315658  0.20796418    -0.23980
H1496       H  0.08446051  0.96457992  0.24812219     0.15000
H1497       H  0.02996102  0.86720552  0.19049007     0.15030
C1498       C  0.98286894  0.89735700  0.23107981    -0.23930
H1499       H  0.14113943  0.95537048  0.22327815     0.05240
H1500       H  0.13829169  0.93964785  0.18131080     0.08460
H1501       H  0.15176739  0.91152694  0.21556043     0.08460
H1502       H  0.96792213  0.90037628  0.20694765     0.08450
H1503       H  0.96855747  0.91264389  0.25050809     0.08450
H1504       H  0.98354584  0.87065664  0.23984248     0.05220
C1505       C  0.17186354  0.30428426  0.16757328    -0.20580
C1506       C  0.19604605  0.33132840  0.16559992    -0.07150
C1507       C  0.23262768  0.32667993  0.17539695     0.13720
C1508       C  0.24331928  0.29600512  0.19068937    -0.20630
C1509       C  0.21832148  0.26981622  0.19527954    -0.07150
C1510       C  0.18281656  0.27314712  0.18160806     0.13710
C1511       C  0.15606620  0.24463019  0.18115120    -0.23980
H1512       H  0.14401628  0.30768132  0.15850550     0.15000
H1513       H  0.27081664  0.29312502  0.20064242     0.15030
C1514       C  0.25967715  0.35450427  0.17151394    -0.23930
H1515       H  0.14684986  0.24038606  0.15498476     0.05240
H1516       H  0.13191944  0.25153740  0.19669007     0.08460
H1517       H  0.16810433  0.22022861  0.19046264     0.08460
H1518       H  0.25004545  0.37744403  0.18520838     0.08450
H1519       H  0.26299988  0.36089448  0.14456316     0.08450
H1520       H  0.28673512  0.34644583  0.18153787     0.05220
C1521       C  0.04941476  0.32482126  0.04905216    -0.20580
C1522       C  0.06820977  0.29371355  0.05017354    -0.07150
C1523       C  0.10420773  0.29060731  0.06257984     0.13720
C1524       C  0.12006527  0.31926702  0.07569327    -0.20630
C1525       C  0.10046261  0.35012626  0.07624631    -0.07150
C1526       C  0.06553864  0.35340745  0.06188584     0.13710
C1527       C  0.04619557  0.38705977  0.05874603    -0.23980
H1528       H  0.02207590  0.32653308  0.03847431     0.15000
H1529       H  0.14713005  0.31722391  0.08683099     0.15030
C1530       C  0.12608353  0.25760573  0.06299025    -0.23930
H1531       H  0.01904260  0.38469998  0.04685316     0.05240
H1532       H  0.06288331  0.40328351  0.04247669     0.08460
H1533       H  0.04268245  0.39872195  0.08367859     0.08460
H1534       H  0.15167426  0.26080478  0.04855154     0.08450
H1535       H  0.11129706  0.23620966  0.05177620     0.08450
H1536       H  0.13323193  0.25059465  0.08925951     0.05220
C1537       C  0.08979435  0.21491003  0.95867434    -0.20580
C1538       C  0.05226539  0.21119625  0.96403517    -0.07150
C1539       C  0.03143899  0.19146275  0.94214564     0.13720
C1540       C  0.04929299  0.17460984  0.91615275    -0.20630
C1541       C  0.08697531  0.17803839  0.91122576    -0.07150
C1542       C  0.10740380  0.19923413  0.93217659     0.13710
C1543       C  0.14787874  0.20458881  0.92814828    -0.23980
H1544       H  0.10595866  0.22923226  0.97619904     0.15000
H1545       H  0.03354762  0.15896305  0.89942307     0.15030
C1546       C  0.99073317  0.18785610  0.94515851    -0.23930
H1547       H  0.15914345  0.22050895  0.94842120     0.05240
H1548       H  0.15323057  0.21787442  0.90409004     0.08460
H1549       H  0.16277982  0.17980831  0.92898663     0.08460
H1550       H  0.97818456  0.20540758  0.96369630     0.08450
H1551       H  0.98439510  0.16125961  0.95201938     0.08450
H1552       H  0.97798861  0.19387085  0.92066724     0.05220
C1553       C  0.95462282  0.15067002  0.08885352    -0.20580
C1554       C  0.92534496  0.17254081  0.09728705    -0.07150
C1555       C  0.92854055  0.20807445  0.09511653     0.13720
C1556       C  0.96050961  0.22081836  0.08226437    -0.20630
C1557       C  0.98912601  0.19896005  0.07214310    -0.07150
C1558       C  0.98700730  0.16358347  0.07670233     0.13710
C1559       C  0.01810489  0.13908197  0.06902069    -0.23980
H1560       H  0.95222794  0.12338989  0.09183968     0.15000
H1561       H  0.96233781  0.24801420  0.07826071     0.15030
C1562       C  0.89802089  0.23268939  0.10441742    -0.23930
H1563       H  0.02485833  0.12371388  0.09176416     0.05240
H1564       H  0.04328779  0.15212958  0.06137312     0.08460
H1565       H  0.00991134  0.12176444  0.04861583     0.08460
H1566       H  0.89284499  0.23132523  0.13177343     0.08450
H1567       H  0.87286840  0.22662480  0.09039082     0.08450
H1568       H  0.90479214  0.25940243  0.09839414     0.05220
C1569       C  0.90140254  0.29696585  0.55588117    -0.20580
C1570       C  0.93870504  0.30118660  0.54989358    -0.07150
C1571       C  0.96162136  0.31333069  0.57561538     0.13720
C1572       C  0.94555128  0.32500804  0.60502767    -0.20630
C1573       C  0.90789510  0.32286347  0.60991097    -0.07150
C1574       C  0.88594697  0.30598681  0.58640105     0.13710
C1575       C  0.84658328  0.29723437  0.59281619    -0.23980
H1576       H  0.88422316  0.28643099  0.53656878     0.15000
H1577       H  0.96234006  0.33657524  0.62406723     0.15030
C1578       C  0.00277844  0.31343821  0.57304016    -0.23930
H1579       H  0.83404900  0.28461934  0.57093001     0.05240
H1580       H  0.82975602  0.32006923  0.59847185     0.08460
H1581       H  0.84501627  0.27950358  0.61442082     0.08460
H1582       H  0.01157491  0.33384782  0.55589189     0.08450
H1583       H  0.01333214  0.28833549  0.56433201     0.08450
H1584       H  0.01567865  0.31844123  0.59770028     0.05220
C1585       C  0.94649143  0.18614163  0.48035584    -0.20580
C1586       C  0.94771435  0.21551745  0.46051438    -0.07150
C1587       C  0.93735557  0.21491900  0.42636440     0.13720
C1588       C  0.92871255  0.18409225  0.41231053    -0.20630
C1589       C  0.92656902  0.15502824  0.43226519    -0.07150
C1590       C  0.93486449  0.15586371  0.46671412     0.13710
C1591       C  0.93280156  0.12494535  0.48875544    -0.23980
H1592       H  0.95445584  0.18701260  0.50654985     0.15000
H1593       H  0.92054554  0.18332311  0.38614667     0.15030
C1594       C  0.93230504  0.24620185  0.40457713    -0.23930
H1595       H  0.93905205  0.13075820  0.51534745     0.05240
H1596       H  0.95349423  0.10620277  0.47995085     0.08460
H1597       H  0.90508619  0.11418538  0.48782679     0.08460
H1598       H  0.95176630  0.24494391  0.38330653     0.08450
H1599       H  0.93580213  0.27025257  0.41828389     0.08450
H1600       H  0.90407478  0.24710276  0.39425495     0.05220
C1601       C  0.05468283  0.32243687  0.48247424    -0.20580
C1602       C  0.02787145  0.31310923  0.45938130    -0.07150
C1603       C  0.03353818  0.31704242  0.42467239     0.13720
C1604       C  0.06760226  0.32694020  0.41387125    -0.20630
C1605       C  0.09498184  0.33487886  0.43690843    -0.07150
C1606       C  0.08792079  0.33465247  0.47164627     0.13710
C1607       C  0.11485198  0.34670421  0.49740627    -0.23980
H1608       H  0.04988571  0.31948172  0.50910209     0.15000
H1609       H  0.07272393  0.32891819  0.38716962     0.15030
C1610       C  0.00391563  0.31179731  0.39897616    -0.23930
H1611       H  0.10491278  0.34276581  0.52340159     0.05240
H1612       H  0.11920535  0.37432343  0.49409057     0.08460
H1613       H  0.14117859  0.33267996  0.49491130     0.08460
H1614       H  0.97875446  0.32626690  0.40614031     0.08450
H1615       H  0.99804058  0.28455414  0.39659688     0.08450
H1616       H  0.01219573  0.32072921  0.37369934     0.05220
C1617       C  0.93749910  0.53957714  0.33896085    -0.20580
C1618       C  0.95022878  0.54503727  0.30628177    -0.07150
C1619       C  0.94646242  0.57728886  0.29092694     0.13720
C1620       C  0.92907424  0.60339274  0.30871405    -0.20630
C1621       C  0.91741834  0.59795729  0.34165861    -0.07150
C1622       C  0.92209556  0.56602637  0.35734271     0.13710
C1623       C  0.91104030  0.55966456  0.39325386    -0.23980
H1624       H  0.94074191  0.51462789  0.35048114     0.15000
H1625       H  0.92555051  0.62838989  0.29736450     0.15030
C1626       C  0.96223097  0.58477475  0.25688220    -0.23930
H1627       H  0.91569225  0.53267362  0.40077311     0.05240
H1628       H  0.88166734  0.56598385  0.39669674     0.08460
H1629       H  0.92739673  0.57545475  0.41034213     0.08460
H1630       H  0.94817564  0.57015274  0.23726181     0.08450
H1631       H  0.99189812  0.57817854  0.25674847     0.08450
H1632       H  0.95890243  0.61209657  0.25026007     0.05220
C1633       C  0.98648257  0.44456084  0.19576156    -0.20580
C1634       C  0.96023137  0.45605753  0.21893921    -0.07150
C1635       C  0.92266796  0.45270215  0.21181619     0.13720
C1636       C  0.91257166  0.44060985  0.18056996    -0.20630
C1637       C  0.93866584  0.42717802  0.15833642    -0.07150
C1638       C  0.97614709  0.42892047  0.16605801     0.13710
C1639       C  0.00529176  0.41558841  0.14277694    -0.23980
H1640       H  0.01528089  0.44754852  0.20107342     0.15000
H1641       H  0.88375502  0.43974960  0.17448478     0.15030
C1642       C  0.89249879  0.45928467  0.23688291    -0.23930
H1643       H  0.03311534  0.42139242  0.15185727     0.05240
H1644       H  0.00137334  0.42750473  0.11774788     0.08460
H1645       H  0.00383977  0.38756366  0.14071562     0.08460
H1646       H  0.87544968  0.48154397  0.22864627     0.08450
H1647       H  0.90263731  0.46350524  0.26265459     0.08450
H1648       H  0.87492425  0.43671865  0.23839348     0.05220
C1649       C  0.07508384  0.47442489  0.32178782    -0.20580
C1650       C  0.04381561  0.45530168  0.31661145    -0.07150
C1651       C  0.04114494  0.42246558  0.33049150     0.13720
C1652       C  0.07155613  0.40828684  0.34670797    -0.20630
C1653       C  0.10353445  0.42672116  0.35027838    -0.07150
C1654       C  0.10503944  0.46057299  0.33907459     0.13710
C1655       C  0.13840407  0.48147773  0.34377398    -0.23980
H1656       H  0.07623325  0.50002158  0.31165378     0.15000
H1657       H  0.07051626  0.38259523  0.35655664     0.15030
C1658       C  0.00624917  0.40285390  0.32933507    -0.23930
H1659       H  0.13425864  0.50768839  0.33377730     0.05240
H1660       H  0.16134050  0.46940331  0.33004831     0.08460
H1661       H  0.14526770  0.48333697  0.37081110     0.08460
H1662       H  0.99914492  0.39635542  0.30317736     0.08450
H1663       H  0.98363121  0.41827143  0.34049673     0.08450
H1664       H  0.00877511  0.37864951  0.34373555     0.05220
C1665       C  0.79049297  0.46310029  0.56298835    -0.20580
C1666       C  0.79330707  0.44137580  0.53554821    -0.07150
C1667       C  0.80350279  0.40696956  0.53992132     0.13720
C1668       C  0.81053814  0.39506066  0.57242517    -0.20630
C1669       C  0.80812338  0.41696577  0.59993485    -0.07150
C1670       C  0.79862988  0.45146642  0.59500821     0.13710
C1671       C  0.79627748  0.47594765  0.62344826    -0.23980
H1672       H  0.78185084  0.48943563  0.55924961     0.15000
H1673       H  0.82019886  0.36927130  0.57601721     0.15030
C1674       C  0.80884463  0.38352814  0.51052339    -0.23930
H1675       H  0.78700907  0.50180367  0.61527574     0.05240
H1676       H  0.82324954  0.47814186  0.63587863     0.08460
H1677       H  0.77602123  0.46602889  0.64104257     0.08460
H1678       H  0.82939775  0.39413220  0.49318201     0.08450
H1679       H  0.78272836  0.38053383  0.49686221     0.08450
H1680       H  0.81874220  0.35784861  0.51865654     0.05220
C1681       C  0.79585614  0.54253554  0.42393468    -0.20580
C1682       C  0.79399807  0.53894744  0.45881503    -0.07150
C1683       C  0.80008142  0.56664650  0.48005704     0.13720
C1684       C  0.80958488  0.59742771  0.46555070    -0.20630
C1685       C  0.81165457  0.60086549  0.43061823    -0.07150
C1686       C  0.80364627  0.57354408  0.40938261     0.13710
C1687       C  0.80424614  0.57638595  0.37157754    -0.23980
H1688       H  0.79006749  0.52102823  0.40805682     0.15000
H1689       H  0.81604306  0.61874232  0.48142107     0.15030
C1690       C  0.79568673  0.56413723  0.51757633    -0.23930
H1691       H  0.79786621  0.55192768  0.35940141     0.05240
H1692       H  0.83159536  0.58388420  0.36276786     0.08460
H1693       H  0.78343048  0.59556995  0.36308278     0.08460
H1694       H  0.81599432  0.54565676  0.52821492     0.08450
H1695       H  0.76769747  0.55585584  0.52372164     0.08450
H1696       H  0.79991398  0.58896888  0.52989806     0.05220
C1697       C  0.63964210  0.43278079  0.44602420    -0.20580
C1698       C  0.64330519  0.43165370  0.41108842    -0.07150
C1699       C  0.67366755  0.44543381  0.39492994     0.13720
C1700       C  0.70130084  0.45801502  0.41466844    -0.20630
C1701       C  0.69852259  0.45771485  0.44972712    -0.07150
C1702       C  0.66686038  0.44635562  0.46574198     0.13710
C1703       C  0.66073271  0.44853666  0.50303289    -0.23980
H1704       H  0.61565001  0.42257978  0.45796230     0.15000
H1705       H  0.72586812  0.46707772  0.40276335     0.15030
C1706       C  0.67822199  0.44503548  0.35732267    -0.23930
H1707       H  0.63473546  0.46278955  0.50776961     0.05240
H1708       H  0.68264887  0.46198471  0.51632752     0.08460
H1709       H  0.65881959  0.42258193  0.51383038     0.08460
H1710       H  0.65610875  0.46063746  0.34527409     0.08450
H1711       H  0.67734128  0.41853013  0.34808478     0.08450
H1712       H  0.70468728  0.45573063  0.34947051     0.05220
C1713       C  0.85629209  0.18889769  0.32470701    -0.20580
C1714       C  0.83159420  0.16358784  0.33327145    -0.07150
C1715       C  0.79514408  0.16565079  0.32221860     0.13720
C1716       C  0.78431777  0.19300842  0.30210747    -0.20630
C1717       C  0.80887195  0.21841073  0.29360229    -0.07150
C1718       C  0.84516854  0.21686521  0.30536271     0.13710
C1719       C  0.87233883  0.24432023  0.29893746    -0.23980
H1720       H  0.88434134  0.18699172  0.33348450     0.15000
H1721       H  0.75642455  0.19469714  0.29284273     0.15030
C1722       C  0.76807067  0.13858659  0.33015041    -0.23930
H1723       H  0.88263874  0.25387719  0.32325392     0.05240
H1724       H  0.86052940  0.26637981  0.28492614     0.08460
H1725       H  0.89575017  0.23367427  0.28443880     0.08460
H1726       H  0.76323935  0.13724268  0.35758577     0.08450
H1727       H  0.77857172  0.11370004  0.32108193     0.08450
H1728       H  0.74145954  0.14393397  0.31758372     0.05220
C1729       C  0.68585242  0.28264672  0.29290300    -0.20580
C1730       C  0.71177682  0.30330032  0.27807751    -0.07150
C1731       C  0.70839020  0.33902535  0.27949174     0.13720
C1732       C  0.67813842  0.35325342  0.29561529    -0.20630
C1733       C  0.65304892  0.33252064  0.31181146    -0.07150
C1734       C  0.65712751  0.29672886  0.31095972     0.13710
C1735       C  0.63185643  0.27299217  0.32882910    -0.23980
H1736       H  0.68925826  0.25521295  0.29165377     0.15000
H1737       H  0.67495082  0.38067443  0.29692631     0.15030
C1738       C  0.73736546  0.36212216  0.26613339    -0.23930
H1739       H  0.63858070  0.24587290  0.32354177     0.05240
H1740       H  0.60359074  0.27815228  0.32032781     0.08460
H1741       H  0.63391902  0.27628275  0.35637142     0.08460
H1742       H  0.73906664  0.36037838  0.23847439     0.08450
H1743       H  0.76427101  0.35505002  0.27744021     0.08450
H1744       H  0.73126429  0.38916196  0.27225141     0.05220
C1745       C  0.81423877  0.32656019  0.19916653    -0.20580
C1746       C  0.80507452  0.29280527  0.19353179    -0.07150
C1747       C  0.81331318  0.27685911  0.16300006     0.13720
C1748       C  0.83106521  0.29545509  0.13833129    -0.20630
C1749       C  0.83991486  0.32930094  0.14408865    -0.07150
C1750       C  0.83158658  0.34511768  0.17468630     0.13710
C1751       C  0.84296208  0.38068417  0.18242469    -0.23980
H1752       H  0.80825255  0.33821979  0.22318014     0.15000
H1753       H  0.83783407  0.28369337  0.11456355     0.15030
C1754       C  0.80359361  0.24083875  0.15578403    -0.23930
H1755       H  0.83500361  0.38853081  0.20814699     0.05240
H1756       H  0.82998117  0.39902477  0.16451370     0.08460
H1757       H  0.87311580  0.38163411  0.18061058     0.08460
H1758       H  0.78837817  0.22872423  0.17646984     0.08450
H1759       H  0.82911927  0.22575695  0.15161886     0.08450
H1760       H  0.78624707  0.24027545  0.13291776     0.05220
C1761       C  0.89134454  0.55745808  0.70845636    -0.20580
C1762       C  0.90082207  0.59150890  0.70472477    -0.07150
C1763       C  0.93233957  0.60405136  0.71974307     0.13720
C1764       C  0.95565375  0.58114772  0.73627570    -0.20630
C1765       C  0.94745754  0.54649032  0.73817698    -0.07150
C1766       C  0.91439265  0.53457154  0.72534393     0.13710
C1767       C  0.90333817  0.49815662  0.72930096    -0.23980
H1768       H  0.86643102  0.54857590  0.69705200     0.15000
H1769       H  0.98119551  0.58999694  0.74646039     0.15030
C1770       C  0.94244812  0.64079356  0.71657246    -0.23930
H1771       H  0.87507316  0.49446958  0.72006653     0.05240
H1772       H  0.90437081  0.49066738  0.75618179     0.08460
H1773       H  0.92170356  0.48119234  0.71466215     0.08460
H1774       H  0.92088498  0.65725149  0.72802518     0.08450
H1775       H  0.94535025  0.64755181  0.68971012     0.08450
H1776       H  0.96870998  0.64589692  0.72938477     0.05220
C1777       C  0.07526884  0.45908800  0.70831283    -0.20580
C1778       C  0.04091797  0.45595528  0.72307026    -0.07150
C1779       C  0.02164184  0.42557614  0.72037138     0.13720
C1780       C  0.03641202  0.39919292  0.70121068    -0.20630
C1781       C  0.07070356  0.40221107  0.68641772    -0.07150
C1782       C  0.09083511  0.43212485  0.69031107     0.13710
C1783       C  0.12841879  0.43579494  0.67546823    -0.23980
H1784       H  0.08991819  0.48250730  0.71117019     0.15000
H1785       H  0.02183118  0.37573913  0.69864693     0.15030
C1786       C  0.98647143  0.42061470  0.73913896    -0.23930
H1787       H  0.13937059  0.46142629  0.68003984     0.05240
H1788       H  0.12745681  0.43189733  0.64800425     0.08460
H1789       H  0.14772909  0.41686548  0.68691951     0.08460
H1790       H  0.96468691  0.43785829  0.72913400     0.08450
H1791       H  0.99064897  0.42560529  0.76623836     0.08450
H1792       H  0.97681651  0.39449010  0.73687426     0.05220
C1793       C  0.04827897  0.57162235  0.81331870    -0.20580
C1794       C  0.04415269  0.53652886  0.81771405    -0.07150
C1795       C  0.05549770  0.52023115  0.84745354     0.13720
C1796       C  0.07066052  0.53972054  0.87264099    -0.20630
C1797       C  0.07397052  0.57482727  0.86861146    -0.07150
C1798       C  0.06286094  0.59118226  0.83867951     0.13710
C1799       C  0.06747913  0.62874265  0.83290233    -0.23980
H1800       H  0.03952291  0.58374365  0.79003418     0.15000
H1801       H  0.07970096  0.52763284  0.89569000     0.15030
C1802       C  0.05068745  0.48283458  0.85312439    -0.23930
H1803       H  0.05853527  0.63674524  0.80734047     0.05240
H1804       H  0.09670781  0.63500400  0.83573719     0.08460
H1805       H  0.05084088  0.64351953  0.85118090     0.08460
H1806       H  0.06686748  0.46787766  0.83470332     0.08450
H1807       H  0.02136681  0.47660621  0.85089342     0.08450
H1808       H  0.06037315  0.47525769  0.87844449     0.05220
C1809       C  0.31249147  0.54653109  0.54334913    -0.20580
C1810       C  0.28103675  0.54498152  0.56304347    -0.07150
C1811       C  0.28109217  0.55667732  0.59634491     0.13720
C1812       C  0.31352430  0.56894582  0.60956736    -0.20630
C1813       C  0.34503618  0.57033225  0.58982196    -0.07150
C1814       C  0.34461635  0.55926877  0.55633006     0.13710
C1815       C  0.37813930  0.55943973  0.53468282    -0.23980
H1816       H  0.31201993  0.53702704  0.51788098     0.15000
H1817       H  0.31406962  0.57846153  0.63502458     0.15030
C1818       C  0.24689938  0.55752683  0.61731427    -0.23930
H1819       H  0.37264869  0.54985355  0.50906262     0.05240
H1820       H  0.39926116  0.54247154  0.54625703     0.08460
H1821       H  0.38831399  0.58563919  0.53213290     0.08460
H1822       H  0.23716003  0.53143735  0.62168767     0.08450
H1823       H  0.22522585  0.57280792  0.60423359     0.08450
H1824       H  0.25169099  0.56918222  0.64218464     0.05220
C1825       C  0.16071797  0.44887685  0.55921494    -0.20580
C1826       C  0.19877253  0.44790180  0.55579167    -0.07150
C1827       C  0.21942748  0.41861558  0.56483284     0.13720
C1828       C  0.20121706  0.39126682  0.57877751    -0.20630
C1829       C  0.16332861  0.39281855  0.58328366    -0.07150
C1830       C  0.14246425  0.42134739  0.57215024     0.13710
C1831       C  0.10125411  0.42354900  0.57432486    -0.23980
H1832       H  0.14518813  0.47151292  0.55177143     0.15000
H1833       H  0.21641262  0.36852668  0.58607955     0.15030
C1834       C  0.26004324  0.41564975  0.55907897    -0.23930
H1835       H  0.09018246  0.44862086  0.56559125     0.05240
H1836       H  0.09216420  0.41981337  0.60056199     0.08460
H1837       H  0.08920006  0.40391878  0.55810701     0.08460
H1838       H  0.27469533  0.43418356  0.57459393     0.08450
H1839       H  0.26613783  0.42016295  0.53218253     0.08450
H1840       H  0.27082780  0.38997243  0.56604267     0.05220
C1841       C  0.28887729  0.69344031  0.68661782    -0.20580
C1842       C  0.29393748  0.69766263  0.72108229    -0.07150
C1843       C  0.32486782  0.68341973  0.73756432     0.13720
C1844       C  0.35122248  0.66650269  0.71858969    -0.20630
C1845       C  0.34717530  0.66395299  0.68391544    -0.07150
C1846       C  0.31533846  0.67663800  0.66758100     0.13710
C1847       C  0.30878488  0.67219780  0.63048337    -0.23980
H1848       H  0.26451770  0.70404044  0.67456368     0.15000
H1849       H  0.37575401  0.65626450  0.73066402     0.15030
C1850       C  0.33130052  0.68726435  0.77464655    -0.23930
H1851       H  0.28108139  0.68154513  0.62288511     0.05240
H1852       H  0.31118748  0.64486910  0.62394922     0.08460
H1853       H  0.32880265  0.68680861  0.61577799     0.08460
H1854       H  0.31010600  0.67409653  0.78921599     0.08450
H1855       H  0.33122866  0.71460357  0.78132834     0.08450
H1856       H  0.35796521  0.67556264  0.78212523     0.05220
C1857       C  0.22925616  0.69453469  0.83581783    -0.20580
C1858       C  0.20683728  0.71228765  0.81272737    -0.07150
C1859       C  0.16851343  0.71057408  0.81482696     0.13720
C1860       C  0.15358499  0.69213475  0.84112696    -0.20630
C1861       C  0.17602486  0.67360189  0.86366394    -0.07150
C1862       C  0.21435115  0.67382295  0.86034839     0.13710
C1863       C  0.23970394  0.65190523  0.88171147    -0.23980
H1864       H  0.25872140  0.69538432  0.83329122     0.15000
H1865       H  0.12412278  0.69132701  0.84346052     0.15030
C1866       C  0.14332251  0.72615735  0.78858550    -0.23930
H1867       H  0.26879839  0.65674225  0.87626153     0.05240
H1868       H  0.23512582  0.62467743  0.87649029     0.08460
H1869       H  0.23487134  0.65686678  0.90868623     0.08460
H1870       H  0.15108852  0.71668329  0.76336119     0.08450
H1871       H  0.14459376  0.75423057  0.78897800     0.08450
H1872       H  0.11440845  0.71949999  0.79301457     0.05220
C1873       C  0.18796278  0.79941897  0.71261286    -0.20580
C1874       C  0.22197023  0.80297271  0.72799316    -0.07150
C1875       C  0.24289993  0.83187570  0.72193114     0.13720
C1876       C  0.22921278  0.85691673  0.69988809    -0.20630
C1877       C  0.19519618  0.85321741  0.68446005    -0.07150
C1878       C  0.17420895  0.82423883  0.69077934     0.13710
C1879       C  0.13790596  0.81877715  0.67374261    -0.23980
H1880       H  0.17268084  0.77652797  0.71694419     0.15000
H1881       H  0.24456472  0.87959802  0.69518370     0.15030
C1882       C  0.27898567  0.83642353  0.73925591    -0.23930
H1883       H  0.12668549  0.79358641  0.68013762     0.05240
H1884       H  0.14133962  0.82000294  0.64612300     0.08460
H1885       H  0.11746313  0.83834241  0.68168624     0.08460
H1886       H  0.29894827  0.81644030  0.73123744     0.08450
H1887       H  0.27522137  0.83475294  0.76682966     0.08450
H1888       H  0.29037979  0.86159640  0.73342142     0.05220
C1889       C  0.21464045  0.54689180  0.44492939    -0.20580
C1890       C  0.19160324  0.53695512  0.47078825    -0.07150
C1891       C  0.15322702  0.53849211  0.46644572     0.13720
C1892       C  0.13902522  0.55033273  0.43598783    -0.20630
C1893       C  0.16200692  0.56375880  0.41156974    -0.07150
C1894       C  0.20023925  0.56051408  0.41537606     0.13710
C1895       C  0.22591070  0.57119552  0.38843629    -0.23980
H1896       H  0.24403028  0.54434430  0.44811082     0.15000
H1897       H  0.10967103  0.55145654  0.43241482     0.15030
C1898       C  0.12643914  0.53003580  0.49377726    -0.23930
H1899       H  0.25499920  0.56615116  0.39526776     0.05240
H1900       H  0.22190010  0.59869667  0.38466912     0.08460
H1901       H  0.22002768  0.55744585  0.36498625     0.08460
H1902       H  0.13962730  0.52492116  0.51835268     0.08450
H1903       H  0.11062884  0.50755163  0.48640346     0.08450
H1904       H  0.10718313  0.55193172  0.49744216     0.05220
C1905       C  0.05099140  0.66849220  0.46976246    -0.20580
C1906       C  0.04269520  0.70332401  0.46697432    -0.07150
C1907       C  0.03824660  0.71864361  0.43505242     0.13720
C1908       C  0.04582924  0.69910288  0.40665562    -0.20630
C1909       C  0.05648676  0.66480618  0.40975508    -0.07150
C1910       C  0.05783357  0.64901753  0.44145747     0.13710
C1911       C  0.07005484  0.61253724  0.44573267    -0.23980
H1912       H  0.05373607  0.65680268  0.49438437     0.15000
H1913       H  0.04535421  0.71103344  0.38215038     0.15030
C1914       C  0.02523004  0.75506528  0.43067916    -0.23930
H1915       H  0.06931090  0.60413327  0.47236348     0.05240
H1916       H  0.09859659  0.60987043  0.43688770     0.08460
H1917       H  0.05212352  0.59586882  0.43097140     0.08460
H1918       H  0.04560777  0.77269010  0.44073011     0.08450
H1919       H  0.99882135  0.75908054  0.44386776     0.08450
H1920       H  0.02091828  0.76171392  0.40380771     0.05220
C1921       C  0.94245707  0.71941100  0.55554614    -0.20580
C1922       C  0.97597420  0.71753477  0.57211362    -0.07150
C1923       C  0.97828302  0.70766636  0.60613094     0.13720
C1924       C  0.94635244  0.69808907  0.62232938    -0.20630
C1925       C  0.91343965  0.69695311  0.60457604    -0.07150
C1926       C  0.91131757  0.70824689  0.57103907     0.13710
C1927       C  0.87668757  0.70814595  0.55113392    -0.23980
H1928       H  0.94104915  0.72824595  0.52971087     0.15000
H1929       H  0.94755596  0.68911643  0.64802442     0.15030
C1930       C  0.01423531  0.70491712  0.62456431    -0.23930
H1931       H  0.88031811  0.71750306  0.52502402     0.05240
H1932       H  0.85683058  0.72546317  0.56349559     0.08460
H1933       H  0.86677874  0.68183377  0.54966345     0.08460
H1934       H  0.02629836  0.73030664  0.62712907     0.08450
H1935       H  0.03342995  0.68786191  0.61073648     0.08450
H1936       H  0.01087051  0.69432796  0.65023436     0.05220
C1937       C  0.12153689  0.82501084  0.57088253    -0.20580
C1938       C  0.09825054  0.85123837  0.58250271    -0.07150
C1939       C  0.06053186  0.85088015  0.57549691     0.13720
C1940       C  0.04731153  0.82489825  0.55582663    -0.20630
C1941       C  0.07016165  0.79763785  0.54611553    -0.07150
C1942       C  0.10771224  0.79753535  0.55356138     0.13710
C1943       C  0.13270218  0.76778263  0.54523844    -0.23980
H1944       H  0.15048598  0.82529438  0.57670302     0.15000
H1945       H  0.01827882  0.82419030  0.55036082     0.15030
C1946       C  0.03398649  0.87725058  0.58864183    -0.23930
H1947       H  0.16097609  0.77157548  0.55441824     0.05240
H1948       H  0.13397412  0.76440525  0.51768499     0.08460
H1949       H  0.12249843  0.74428364  0.55716957     0.08460
H1950       H  0.04156608  0.90222329  0.57881604     0.08450
H1951       H  0.03427781  0.87725005  0.61646215     0.08450
H1952       H  0.00555735  0.87256346  0.58055046     0.05220
C1953       C  0.67353345  0.29414543  0.68095336    -0.20580
C1954       C  0.68742140  0.30187609  0.71268073    -0.07150
C1955       C  0.68634421  0.33532324  0.72482344     0.13720
C1956       C  0.67202236  0.36093168  0.70415198    -0.20630
C1957       C  0.66029329  0.35336685  0.67174041    -0.07150
C1958       C  0.66038159  0.31986664  0.65991934     0.13710
C1959       C  0.64665510  0.31136386  0.62540608    -0.23980
H1960       H  0.67508130  0.26817698  0.67201223     0.15000
H1961       H  0.67081953  0.38699680  0.71283927     0.15030
C1962       C  0.70186397  0.34414872  0.75859495    -0.23930
H1963       H  0.64852999  0.28363389  0.62047648     0.05240
H1964       H  0.66296550  0.32458617  0.60610563     0.08460
H1965       H  0.61765561  0.31963198  0.62308139     0.08460
H1966       H  0.73132999  0.33680381  0.75970943     0.08450
H1967       H  0.68705778  0.33050613  0.77863092     0.08450
H1968       H  0.69919255  0.37181574  0.76353672     0.05220
C1969       C  0.69853055  0.23381865  0.82912571    -0.20580
C1970       C  0.71079133  0.21550654  0.80109171    -0.07150
C1971       C  0.70765763  0.17975853  0.80018051     0.13720
C1972       C  0.69387856  0.16329998  0.82799769    -0.20630
C1973       C  0.67967178  0.18164691  0.85493941    -0.07150
C1974       C  0.68182927  0.21729418  0.85583501     0.13710
C1975       C  0.66713280  0.23779482  0.88476628    -0.23980
H1976       H  0.70078092  0.26124039  0.82945847     0.15000
H1977       H  0.69215512  0.13586367  0.82785326     0.15030
C1978       C  0.71521127  0.15878464  0.76935120    -0.23930
H1979       H  0.67325191  0.26513096  0.88197932     0.05240
H1980       H  0.67985071  0.22841503  0.90839908     0.08460
H1981       H  0.63701947  0.23567740  0.88632194     0.08460
H1982       H  0.74471086  0.15794687  0.76349155     0.08450
H1983       H  0.69899619  0.16937146  0.74804684     0.08450
H1984       H  0.70705935  0.13197238  0.77272847     0.05220
C1985       C  0.82173911  0.24231510  0.69620698    -0.20580
C1986       C  0.79040390  0.22422908  0.70331386    -0.07150
C1987       C  0.78483632  0.19204898  0.68911086     0.13720
C1988       C  0.81363128  0.17624270  0.67253732    -0.20630
C1989       C  0.84614098  0.19323291  0.66763856    -0.07150
C1990       C  0.84971078  0.22725149  0.67763256     0.13710
C1991       C  0.88358760  0.24679580  0.67098536    -0.23980
H1992       H  0.82460780  0.26777002  0.70597690     0.15000
H1993       H  0.81060400  0.15068742  0.66301136     0.15030
C1994       C  0.74882868  0.17438018  0.68973801    -0.23930
H1995       H  0.88106574  0.27327465  0.68015771     0.05240
H1996       H  0.88968219  0.24765723  0.64379201     0.08460
H1997       H  0.90626359  0.23410399  0.68446507     0.08460
H1998       H  0.72670671  0.19015997  0.70098183     0.08450
H1999       H  0.75182853  0.14996631  0.70367247     0.08450
H2000       H  0.74026354  0.16885704  0.66363783     0.05220
C2001       C  0.45223225  0.17868980  0.52154505    -0.20580
C2002       C  0.48009880  0.18382590  0.54495332    -0.07150
C2003       C  0.47427909  0.17775541  0.57928215     0.13720
C2004       C  0.43910746  0.17109106  0.58998967    -0.20630
C2005       C  0.41051152  0.16811884  0.56687576    -0.07150
C2006       C  0.41749257  0.16971288  0.53212392     0.13710
C2007       C  0.38858273  0.16301594  0.50628597    -0.23980
H2008       H  0.45734437  0.18298568  0.49509465     0.15000
H2009       H  0.43407509  0.16730129  0.61651994     0.15030
C2010       C  0.50514843  0.17746054  0.60436623    -0.23930
H2011       H  0.39863552  0.16715285  0.48035294     0.05240
H2012       H  0.36490211  0.18036577  0.51034723     0.08460
H2013       H  0.37991370  0.13627607  0.50820911     0.08460
H2014       H  0.51751759  0.20267565  0.60568332     0.08450
H2015       H  0.52636859  0.15840714  0.59680944     0.08450
H2016       H  0.49570458  0.17070563  0.62995664     0.05220
C2017       C  0.61693637  0.19242832  0.41487613    -0.20580
C2018       C  0.59108947  0.17729720  0.39394502    -0.07150
C2019       C  0.55428560  0.17651281  0.40407300     0.13720
C2020       C  0.54468289  0.18926766  0.43539986    -0.20630
C2021       C  0.57128065  0.20030302  0.45806965    -0.07150
C2022       C  0.60802385  0.20209561  0.44761925     0.13710
C2023       C  0.63888057  0.21155168  0.47060924    -0.23980
H2024       H  0.64509851  0.19395660  0.40681348     0.15000
H2025       H  0.51621220  0.18923804  0.44285289     0.15030
C2026       C  0.52505585  0.16189870  0.38236831    -0.23930
H2027       H  0.66025553  0.19105286  0.47049290     0.05240
H2028       H  0.63037409  0.21467050  0.49703315     0.08460
H2029       H  0.65107947  0.23548587  0.46162083     0.08460
H2030       H  0.52930907  0.13399147  0.38106255     0.08450
H2031       H  0.52639503  0.17316579  0.35690159     0.08450
H2032       H  0.49723790  0.16690954  0.39254384     0.05220
C2033       C  0.55254972  0.32946293  0.59114978    -0.20580
C2034       C  0.56631746  0.35398118  0.56946340    -0.07150
C2035       C  0.57094340  0.34633929  0.53505489     0.13720
C2036       C  0.55950597  0.31507409  0.52325852    -0.20630
C2037       C  0.54964385  0.28915312  0.54551966    -0.07150
C2038       C  0.54713277  0.29639431  0.58033149     0.13710
C2039       C  0.54353839  0.26937324  0.60707215    -0.23980
H2040       H  0.55032656  0.33496351  0.61770386     0.15000
H2041       H  0.56061168  0.31024263  0.49658329     0.15030
C2042       C  0.58946159  0.36965897  0.51067587    -0.23930
H2043       H  0.55335186  0.27831021  0.63181047     0.05240
H2044       H  0.56065900  0.24665638  0.60076741     0.08460
H2045       H  0.51452184  0.26285690  0.61045603     0.08460
H2046       H  0.61855714  0.37239364  0.51765477     0.08450
H2047       H  0.57550154  0.39461535  0.51035269     0.08450
H2048       H  0.58897051  0.35979182  0.48464422     0.05220
C2049       C  0.71820223  0.07986484  0.44235151    -0.20580
C2050       C  0.72765593  0.04521640  0.43994222    -0.07150
C2051       C  0.72278254  0.02787878  0.40963655     0.13720
C2052       C  0.70508041  0.04509286  0.38327478    -0.20630
C2053       C  0.69508051  0.07955540  0.38608448    -0.07150
C2054       C  0.70256193  0.09741706  0.41553498     0.13710
C2055       C  0.69118009  0.13408914  0.41988418    -0.23980
H2056       H  0.72181916  0.09304619  0.46582277     0.15000
H2057       H  0.69843714  0.03147276  0.36081787     0.15030
C2058       C  0.73721177  0.99206022  0.40474637    -0.23930
H2059       H  0.69859776  0.14376383  0.44503251     0.05240
H2060       H  0.66111948  0.13632695  0.41712430     0.08460
H2061       H  0.70466330  0.15014236  0.40082548     0.08460
H2062       H  0.72221464  0.97382443  0.42045453     0.08450
H2063       H  0.76673415  0.99057177  0.41121370     0.08450
H2064       H  0.73438128  0.98398382  0.37839073     0.05220
C2065       C  0.67688353  0.95945294  0.53505649    -0.20580
C2066       C  0.71483854  0.96098417  0.53234070    -0.07150
C2067       C  0.73755455  0.93449575  0.54529994     0.13720
C2068       C  0.72166081  0.90745757  0.56198034    -0.20630
C2069       C  0.68384761  0.90636614  0.56565754    -0.07150
C2070       C  0.66090637  0.93235088  0.55175570     0.13710
C2071       C  0.61992484  0.93271132  0.55586866    -0.23980
H2072       H  0.65986952  0.98010461  0.52507773     0.15000
H2073       H  0.73879874  0.88713039  0.57244733     0.15030
C2074       C  0.77844464  0.93420262  0.54129043    -0.23930
H2075       H  0.60689634  0.95615785  0.54513230     0.05240
H2076       H  0.61285880  0.93155994  0.58291153     0.08460
H2077       H  0.60817493  0.91078774  0.54264945     0.08460
H2078       H  0.79070030  0.95552774  0.55490895     0.08450
H2079       H  0.78565001  0.93564199  0.51430320     0.08450
H2080       H  0.79072173  0.91063786  0.55203509     0.05220
C2081       C  0.82577599  0.03785799  0.55735947    -0.20580
C2082       C  0.79739469  0.05664213  0.54228722    -0.07150
C2083       C  0.79627753  0.09250284  0.54358379     0.13720
C2084       C  0.82517053  0.10884225  0.55871388    -0.20630
C2085       C  0.85345516  0.08996280  0.57406470    -0.07150
C2086       C  0.85373620  0.05399743  0.57376327     0.13710
C2087       C  0.88394857  0.03222946  0.58908588    -0.23980
H2088       H  0.82641218  0.01035880  0.55560606     0.15000
H2089       H  0.82465498  0.13637604  0.56006797     0.15030
C2090       C  0.76460801  0.11407291  0.53063282    -0.23930
H2091       H  0.87984085  0.00470481  0.58494682     0.05240
H2092       H  0.88557348  0.03591967  0.61654348     0.08460
H2093       H  0.90994520  0.03873402  0.57709894     0.08460
H2094       H  0.74116542  0.09879448  0.52268215     0.08450
H2095       H  0.77366903  0.12984039  0.50915820     0.08450
H2096       H  0.75452688  0.13111309  0.55085850     0.05220
C2097       C  0.43156717  0.03180389  0.68778464    -0.20580
C2098       C  0.45916326  0.05214802  0.70060189    -0.07150
C2099       C  0.46072222  0.08677163  0.69175036     0.13720
C2100       C  0.43302911  0.10067730  0.67170342    -0.20630
C2101       C  0.40514708  0.08043805  0.65923362    -0.07150
C2102       C  0.40506075  0.04536477  0.66616931     0.13710
C2103       C  0.37732888  0.02224946  0.65127735    -0.23980
H2104       H  0.43163368  0.00489446  0.69388508     0.15000
H2105       H  0.43320847  0.12754564  0.66552393     0.15030
C2106       C  0.49209066  0.10872504  0.70186393    -0.23930
H2107       H  0.38133301  0.99563189  0.66023084     0.05240
H2108       H  0.37973713  0.02225977  0.62353821     0.08460
H2109       H  0.34958402  0.03103940  0.65841315     0.08460
H2110       H  0.51832538  0.09691604  0.69344295     0.08450
H2111       H  0.49263242  0.11198624  0.72942711     0.08450
H2112       H  0.48971783  0.13449778  0.69040266     0.05220
C2113       C  0.54778987  0.06279099  0.85087468    -0.20580
C2114       C  0.58128649  0.07820710  0.84523225    -0.07150
C2115       C  0.59864460  0.07584288  0.81385672     0.13720
C2116       C  0.58156659  0.05837679  0.78828768    -0.20630
C2117       C  0.54787091  0.04326050  0.79368745    -0.07150
C2118       C  0.53085083  0.04490947  0.82526716     0.13710
C2119       C  0.49568382  0.02711779  0.83216050    -0.23980
H2120       H  0.53524797  0.06436196  0.87544200     0.15000
H2121       H  0.59410417  0.05709863  0.76369048     0.15030
C2122       C  0.63430679  0.09279841  0.80690921    -0.23930
H2123       H  0.48750657  0.02962996  0.85882697     0.05240
H2124       H  0.49918229  0.99962473  0.82661578     0.08460
H2125       H  0.47331026  0.03812639  0.81639288     0.08460
H2126       H  0.65607489  0.08195530  0.82349767     0.08450
H2127       H  0.63099612  0.12049967  0.81137886     0.08450
H2128       H  0.64327998  0.08919979  0.78055561     0.05220
C2129       C  0.60627568  0.94036329  0.66865347    -0.20580
C2130       C  0.58549351  0.91179592  0.66177605    -0.07150
C2131       C  0.54862541  0.91066052  0.67117896     0.13720
C2132       C  0.53390264  0.93734241  0.68975997    -0.20630
C2133       C  0.55515561  0.96512386  0.69802748    -0.07150
C2134       C  0.59122553  0.96756293  0.68637827     0.13710
C2135       C  0.61333145  0.99890553  0.69173575    -0.23980
H2136       H  0.63443016  0.94118675  0.66032470     0.15000
H2137       H  0.50573366  0.93658770  0.69807417     0.15030
C2138       C  0.52528585  0.88099643  0.66303304    -0.23930
H2139       H  0.64044455  0.99676785  0.67938142     0.05240
H2140       H  0.61805797  0.00290210  0.71887626     0.08460
H2141       H  0.59853284  0.02143771  0.68098729     0.08460
H2142       H  0.53733359  0.85769365  0.67454352     0.08450
H2143       H  0.52298245  0.87796373  0.63546771     0.08450
H2144       H  0.49744987  0.88473336  0.67305560     0.05220
C2145       C  0.40233256  0.53290285  0.18802225    -0.20580
C2146       C  0.40290973  0.56821488  0.18382040    -0.07150
C2147       C  0.43091158  0.58730541  0.19825408     0.13720
C2148       C  0.45960710  0.57008007  0.21406993    -0.20630
C2149       C  0.46043377  0.53454780  0.21649765    -0.07150
C2150       C  0.43054124  0.51575664  0.20508103     0.13710
C2151       C  0.42748697  0.47802438  0.21057498    -0.23980
H2152       H  0.37984235  0.51868793  0.17789823     0.15000
H2153       H  0.48268518  0.58442207  0.22270498     0.15030
C2154       C  0.43229749  0.62549151  0.19509821    -0.23930
H2155       H  0.40146635  0.47290965  0.22371000     0.05240
H2156       H  0.44993167  0.46714243  0.22632048     0.08460
H2157       H  0.42748815  0.46487737  0.18602236     0.08460
H2158       H  0.40891125  0.63756117  0.20852516     0.08450
H2159       H  0.43145965  0.63285921  0.16824680     0.08450
H2160       H  0.45766937  0.63564408  0.20612193     0.05220
C2161       C  0.56722451  0.42541913  0.21034357    -0.20580
C2162       C  0.56320460  0.45589515  0.19242494    -0.07150
C2163       C  0.57094025  0.45755370  0.15791358     0.13720
C2164       C  0.58291881  0.42797907  0.14190143    -0.20630
C2165       C  0.58735841  0.39752136  0.15999435    -0.07150
C2166       C  0.57920853  0.39595907  0.19444043     0.13710
C2167       C  0.58129066  0.36318656  0.21407165    -0.23980
H2168       H  0.56023376  0.42464839  0.23675828     0.15000
H2169       H  0.58988831  0.42877940  0.11548524     0.15030
C2170       C  0.56771227  0.49045117  0.13842080    -0.23930
H2171       H  0.57320280  0.36682080  0.24066320     0.05240
H2172       H  0.60949072  0.35223156  0.21392165     0.08460
H2173       H  0.56213136  0.34522488  0.20270307     0.08460
H2174       H  0.58538863  0.50966838  0.15003988     0.08450
H2175       H  0.53898911  0.50008967  0.13833303     0.08450
H2176       H  0.57633046  0.48716751  0.11192553     0.05220
C2177       C  0.43570141  0.68458386  0.03300865    -0.20580
C2178       C  0.46359749  0.69744547  0.05296424    -0.07150
C2179       C  0.46218392  0.69413764  0.08821633     0.13720
C2180       C  0.43181876  0.67909443  0.10255402    -0.20630
C2181       C  0.40468070  0.66510971  0.08242701    -0.07150
C2182       C  0.40659656  0.66776474  0.04721560     0.13710
C2183       C  0.37770446  0.65410033  0.02437231    -0.23980
H2184       H  0.43672389  0.68781092  0.00598954     0.15000
H2185       H  0.43016684  0.67697722  0.12958805     0.15030
C2186       C  0.49259660  0.70451472  0.11128762    -0.23930
H2187       H  0.38302998  0.66069078  0.99773384     0.05240
H2188       H  0.35065898  0.66519379  0.03116250     0.08460
H2189       H  0.37717131  0.62598759  0.02619713     0.08460
H2190       H  0.48266841  0.72532840  0.12783232     0.08450
H2191       H  0.51714768  0.71296009  0.09771921     0.08450
H2192       H  0.50133891  0.68244360  0.12713744     0.05220
C2193       C  0.53950777  0.85358140  0.05968760    -0.20580
C2194       C  0.57703965  0.85048738  0.06609065    -0.07150
C2195       C  0.59715122  0.82111434  0.05680756     0.13720
C2196       C  0.57865216  0.79463820  0.04238819    -0.20630
C2197       C  0.54096725  0.79722884  0.03648492    -0.07150
C2198       C  0.52111834  0.82714449  0.04439902     0.13710
C2199       C  0.48118389  0.83157517  0.03615816    -0.23980
H2200       H  0.52467626  0.87657642  0.06689002     0.15000
H2201       H  0.59353509  0.77132308  0.03647913     0.15030
C2202       C  0.63762052  0.81673884  0.06352856    -0.23930
H2203       H  0.47135925  0.85760175  0.04236215     0.05240
H2204       H  0.46474244  0.81341314  0.05071268     0.08460
H2205       H  0.47674985  0.82757235  0.00893264     0.08460
H2206       H  0.64315154  0.81943592  0.09070477     0.08450
H2207       H  0.65288257  0.83606565  0.04927035     0.08450
H2208       H  0.64826035  0.79131917  0.05577313     0.05220
C2209       C  0.60261770  0.69170143  0.92384938    -0.20580
C2210       C  0.58032425  0.67563863  0.90052158    -0.07150
C2211       C  0.54245127  0.67331032  0.90630118     0.13720
C2212       C  0.52773631  0.68772929  0.93518865    -0.20630
C2213       C  0.55026985  0.70266737  0.95896410    -0.07150
C2214       C  0.58836880  0.70376175  0.95386531     0.13710
C2215       C  0.61496120  0.71574037  0.97995735    -0.23980
H2216       H  0.63177131  0.69313308  0.91958834     0.15000
H2217       H  0.49849275  0.68719242  0.93941994     0.15030
C2218       C  0.51721625  0.65630704  0.88216782    -0.23930
H2219       H  0.63651058  0.69579989  0.98422938     0.05240
H2220       H  0.60201077  0.72052519  0.00456204     0.08460
H2221       H  0.62802789  0.73928792  0.97103646     0.08460
H2222       H  0.52183635  0.62833879  0.88304943     0.08450
H2223       H  0.52176155  0.66576738  0.85632816     0.08450
H2224       H  0.48841142  0.66183456  0.88871172     0.05220
C2225       C  0.73765664  0.42991996  0.04563614    -0.20580
C2226       C  0.71424857  0.45477524  0.03132879    -0.07150
C2227       C  0.67599798  0.45140676  0.03312429     0.13720
C2228       C  0.66235939  0.42210741  0.04774097    -0.20630
C2229       C  0.68578055  0.39771062  0.06285849    -0.07150
C2230       C  0.72390829  0.40241419  0.06317034     0.13710
C2231       C  0.75031888  0.37995451  0.08287858    -0.23980
H2232       H  0.76697545  0.43317287  0.04470035     0.15000
H2233       H  0.63301848  0.41908628  0.04890343     0.15030
C2234       C  0.64936514  0.47927480  0.02218803    -0.23930
H2235       H  0.77912062  0.38706237  0.07869095     0.05240
H2236       H  0.74779665  0.35314238  0.07562845     0.08460
H2237       H  0.74481330  0.38251109  0.11010752     0.08460
H2238       H  0.64920119  0.48216238  0.99456876     0.08450
H2239       H  0.65664018  0.50364372  0.03405376     0.08450
H2240       H  0.62094729  0.47363017  0.02973256     0.05220
C2241       C  0.86007217  0.54477659  0.07555906    -0.20580
C2242       C  0.85358685  0.57840815  0.08528321    -0.07150
C2243       C  0.82082282  0.59589747  0.07630713     0.13720
C2244       C  0.79519313  0.57902333  0.05719845    -0.20630
C2245       C  0.80203308  0.54558576  0.04697720    -0.07150
C2246       C  0.83467089  0.52812130  0.05603856     0.13710
C2247       C  0.84345719  0.49260769  0.04413136    -0.23980
H2248       H  0.88550114  0.53185213  0.08255125     0.15000
H2249       H  0.76976841  0.59188241  0.05006013     0.15030
C2250       C  0.81232774  0.63181915  0.08739648    -0.23930
H2251       H  0.87134629  0.48426322  0.05195102     0.05240
H2252       H  0.84209826  0.49177248  0.01633232     0.08460
H2253       H  0.82400451  0.47438476  0.05490724     0.08460
H2254       H  0.83166705  0.64960243  0.07570137     0.08450
H2255       H  0.81432012  0.63344482  0.11512493     0.08450
H2256       H  0.78430872  0.64033820  0.07989186     0.05220
C2257       C  0.70351303  0.54834090  0.88925534    -0.20580
C2258       C  0.68723452  0.58024826  0.89515549    -0.07150
C2259       C  0.68970010  0.59539351  0.92690716     0.13720
C2260       C  0.70826401  0.57787611  0.95237574    -0.20630
C2261       C  0.72459523  0.54593897  0.94644803    -0.07150
C2262       C  0.72323022  0.53125242  0.91443533     0.13710
C2263       C  0.74342192  0.49840092  0.90661026    -0.23980
H2264       H  0.70083902  0.53674255  0.86509292     0.15000
H2265       H  0.70915702  0.58864234  0.97732487     0.15030
C2266       C  0.67123742  0.62909580  0.93441368    -0.23930
H2267       H  0.74134341  0.49193655  0.87969872     0.05240
H2268       H  0.73215600  0.47697757  0.92107567     0.08460
H2269       H  0.77283004  0.50082297  0.91280825     0.08460
H2270       H  0.64145284  0.62733039  0.92972287     0.08450
H2271       H  0.68267311  0.64922748  0.91822300     0.08450
H2272       H  0.67514088  0.63665270  0.96094536     0.05220
C2273       C  0.59228639  0.58907483  0.31045006    -0.20580
C2274       C  0.58954622  0.57330897  0.34184496    -0.07150
C2275       C  0.57875144  0.53923455  0.34450115     0.13720
C2276       C  0.56961627  0.52188539  0.31556165    -0.20630
C2277       C  0.57086331  0.53812412  0.28448388    -0.07150
C2278       C  0.58301540  0.57165689  0.28143813     0.13710
C2279       C  0.58567961  0.58893012  0.24772058    -0.23980
H2280       H  0.60179063  0.61489426  0.30868502     0.15000
H2281       H  0.55921222  0.49635374  0.31729632     0.15030
C2282       C  0.57389888  0.52199255  0.37776980    -0.23930
H2283       H  0.59640716  0.61497990  0.24991537     0.05240
H2284       H  0.55830308  0.59087453  0.23572323     0.08460
H2285       H  0.60443687  0.57394494  0.23135312     0.08460
H2286       H  0.55169686  0.53576389  0.39114406     0.08450
H2287       H  0.59964879  0.52200957  0.39249986     0.08450
H2288       H  0.56573608  0.49516349  0.37497746     0.05220
C2289       C  0.70926773  0.72559925  0.33108340    -0.20580
C2290       C  0.70165659  0.71585843  0.29846615    -0.07150
C2291       C  0.68556377  0.68448784  0.29144739     0.13720
C2292       C  0.67768316  0.66301634  0.31802862    -0.20630
C2293       C  0.68563811  0.67271096  0.35073605    -0.07150
C2294       C  0.70123962  0.70417162  0.35748888     0.13710
C2295       C  0.70871052  0.71541071  0.39243087    -0.23980
H2296       H  0.72302352  0.74925631  0.33561561     0.15000
H2297       H  0.66426311  0.63921343  0.31347841     0.15030
C2298       C  0.67790012  0.67334288  0.25604067    -0.23930
H2299       H  0.72299667  0.73990205  0.39271210     0.05240
H2300       H  0.72631431  0.69602195  0.40536695     0.08460
H2301       H  0.68221046  0.71890132  0.40546023     0.08460
H2302       H  0.70367552  0.67173223  0.24147976     0.08450
H2303       H  0.65880286  0.69190760  0.24376554     0.08450
H2304       H  0.66523364  0.64799036  0.25542988     0.05220
C2305       C  0.86366188  0.69957018  0.20311426    -0.20580
C2306       C  0.85686267  0.66554715  0.19627791    -0.07150
C2307       C  0.82612528  0.64940903  0.20930721     0.13720
C2308       C  0.80077172  0.66921804  0.22665481    -0.20630
C2309       C  0.80651314  0.70398425  0.23100674    -0.07150
C2310       C  0.83901856  0.71894833  0.22126128     0.13710
C2311       C  0.84710677  0.75534600  0.22906076    -0.23980
H2312       H  0.88733209  0.71153074  0.19276248     0.15000
H2313       H  0.77526418  0.65829340  0.23459391     0.15030
C2314       C  0.81857341  0.61254367  0.20274131    -0.23930
H2315       H  0.87508667  0.76164880  0.22091091     0.05240
H2316       H  0.84537698  0.75941024  0.25653611     0.08460
H2317       H  0.82742955  0.77285642  0.21608120     0.08460
H2318       H  0.84027670  0.59614221  0.21437608     0.08450
H2319       H  0.81770554  0.60791747  0.17531597     0.08450
H2320       H  0.79200314  0.60499389  0.21351539     0.05220
C2321       C  0.66068206  0.80807924  0.16280805    -0.20580
C2322       C  0.68126838  0.83719187  0.15818233    -0.07150
C2323       C  0.71762318  0.83849158  0.16929438     0.13720
C2324       C  0.73162186  0.81144472  0.18805436    -0.20630
C2325       C  0.71005486  0.78345382  0.19512626    -0.07150
C2326       C  0.67504274  0.78054843  0.18087246     0.13710
C2327       C  0.65315244  0.74872828  0.18419485    -0.23980
H2328       H  0.63299181  0.80738192  0.15310754     0.15000
H2329       H  0.75880895  0.81289268  0.19878472     0.15030
C2330       C  0.74068933  0.86911394  0.16370008    -0.23930
H2331       H  0.62779428  0.75034341  0.16883415     0.05240
H2332       H  0.64481587  0.74453446  0.21051465     0.08460
H2333       H  0.66969664  0.72650043  0.17546206     0.08460
H2334       H  0.72724198  0.89151883  0.17532868     0.08450
H2335       H  0.74442212  0.87370813  0.13644909     0.08450
H2336       H  0.76809893  0.86570469  0.17527159     0.05220
C2337       C  0.31618451  0.55936764  0.96935610    -0.20580
C2338       C  0.32606673  0.52903023  0.95330497    -0.07150
C2339       C  0.34101454  0.52912171  0.92085340     0.13720
C2340       C  0.34570203  0.56021329  0.90491418    -0.20630
C2341       C  0.33615521  0.59047791  0.92119310    -0.07150
C2342       C  0.32064210  0.59032535  0.95329914     0.13710
C2343       C  0.30728613  0.62249720  0.96975804    -0.23980
H2344       H  0.30305991  0.55863547  0.99371161     0.15000
H2345       H  0.35798497  0.56103377  0.88020177     0.15030
C2346       C  0.35244615  0.49668183  0.90348191    -0.23930
H2347       H  0.29573375  0.61762261  0.99501352     0.05240
H2348       H  0.28563290  0.63476683  0.95396741     0.08460
H2349       H  0.33016326  0.64001859  0.97253939     0.08460
H2350       H  0.32850923  0.48049445  0.89932356     0.08450
H2351       H  0.37288308  0.48254033  0.91916328     0.08450
H2352       H  0.36498752  0.50180126  0.87867502     0.05220
C2353       C  0.19916622  0.47425186  0.94468192    -0.20580
C2354       C  0.22624755  0.45104038  0.95544792    -0.07150
C2355       C  0.22256774  0.41594099  0.95083217     0.13720
C2356       C  0.18991033  0.40459375  0.93810057    -0.20630
C2357       C  0.16167896  0.42757690  0.92890446    -0.07150
C2358       C  0.16700337  0.46294313  0.93047609     0.13710
C2359       C  0.13937993  0.48891372  0.91800921    -0.23980
H2360       H  0.20325630  0.50127728  0.94762212     0.15000
H2361       H  0.18663359  0.37749361  0.93487049     0.15030
C2362       C  0.25319574  0.39054642  0.95815985    -0.23930
H2363       H  0.14881706  0.51526733  0.92145111     0.05240
H2364       H  0.11395921  0.48650225  0.93235122     0.08460
H2365       H  0.13422597  0.48544581  0.89083759     0.08460
H2366       H  0.25901294  0.38936702  0.98539849     0.08450
H2367       H  0.27817267  0.39788359  0.94442605     0.08450
H2368       H  0.24618472  0.36451490  0.95017170     0.05220
C2369       C  0.31421044  0.41368119  0.04795685    -0.20580
C2370       C  0.31267010  0.44923650  0.04814909    -0.07150
C2371       C  0.32147476  0.46735453  0.07727344     0.13720
C2372       C  0.33332150  0.44901753  0.10546077    -0.20630
C2373       C  0.33533756  0.41344594  0.10489003    -0.07150
C2374       C  0.32470326  0.39537103  0.07624324     0.13710
C2375       C  0.32584325  0.35700486  0.07456017    -0.23980
H2376       H  0.30743746  0.40016679  0.02526969     0.15000
H2377       H  0.34155545  0.46236618  0.12785228     0.15030
C2378       C  0.31779600  0.50550273  0.07907093    -0.23930
H2379       H  0.31770591  0.34771905  0.04944673     0.05240
H2380       H  0.30655683  0.34639156  0.09307567     0.08460
H2381       H  0.35387813  0.34699335  0.07978997     0.08460
H2382       H  0.28930376  0.51374954  0.07299167     0.08450
H2383       H  0.33683611  0.51768983  0.06142652     0.08450
H2384       H  0.32450743  0.51467667  0.10453472     0.05220
C2385       C  0.58001290  0.47132960  0.78773677    -0.20580
C2386       C  0.55306731  0.45210367  0.77228721    -0.07150
C2387       C  0.55506285  0.41607122  0.77447095     0.13720
C2388       C  0.58280894  0.40100554  0.79360091    -0.20630
C2389       C  0.60467116  0.42077024  0.81402741    -0.07150
C2390       C  0.60219369  0.45655617  0.81227084     0.13710
C2391       C  0.61860444  0.47944341  0.83818369    -0.23980
H2392       H  0.57902166  0.49880146  0.78522986     0.15000
H2393       H  0.58498615  0.37350403  0.79533371     0.15030
C2394       C  0.52670633  0.39303484  0.76019166    -0.23930
H2395       H  0.61492450  0.50679343  0.83157913     0.05240
H2396       H  0.64789654  0.47402280  0.84125536     0.08460
H2397       H  0.60506540  0.47523140  0.86268544     0.08460
H2398       H  0.52731613  0.39365218  0.73243423     0.08450
H2399       H  0.49941193  0.40062099  0.76985759     0.08450
H2400       H  0.53162329  0.36607841  0.76774087     0.05220
C2401       C  0.44700578  0.60126942  0.79999822    -0.20580
C2402       C  0.44175008  0.59846898  0.83452083    -0.07150
C2403       C  0.45040754  0.56808697  0.85199222     0.13720
C2404       C  0.46028863  0.53956931  0.83345681    -0.20630
C2405       C  0.46242427  0.54171637  0.79850606    -0.07150
C2406       C  0.45774960  0.57308122  0.78159662     0.13710
C2407       C  0.46421627  0.57708542  0.74444701    -0.23980
H2408       H  0.44099978  0.62524399  0.78728276     0.15000
H2409       H  0.46559430  0.51542097  0.84603509     0.15030
C2410       C  0.44790317  0.56526745  0.88964669    -0.23930
H2411       H  0.46151322  0.60411002  0.73653212     0.05240
H2412       H  0.44399757  0.56267466  0.72990622     0.08460
H2413       H  0.49226835  0.56789839  0.73814664     0.08460
H2414       H  0.41989392  0.57196354  0.89812787     0.08450
H2415       H  0.46741340  0.58280779  0.90136862     0.08450
H2416       H  0.45472084  0.53911404  0.89870009     0.05220
C2417       C  0.43628243  0.47777858  0.67892336    -0.20580
C2418       C  0.43855767  0.46037034  0.70940894    -0.07150
C2419       C  0.42673807  0.42676495  0.71277468     0.13720
C2420       C  0.41612856  0.40989182  0.68419819    -0.20630
C2421       C  0.41650323  0.42642574  0.65317288    -0.07150
C2422       C  0.42520693  0.46095747  0.65034923     0.13710
C2423       C  0.42606229  0.47913214  0.61717613    -0.23980
H2424       H  0.44598553  0.50355565  0.67707437     0.15000
H2425       H  0.40757916  0.38372464  0.68608317     0.15030
C2426       C  0.42574202  0.40800445  0.74582239    -0.23930
H2427       H  0.43299312  0.50626847  0.62002182     0.05240
H2428       H  0.39910234  0.47820718  0.60448378     0.08460
H2429       H  0.44750509  0.46675666  0.60169957     0.08460
H2430       H  0.43459396  0.42376537  0.76716509     0.08450
H2431       H  0.44361592  0.38485458  0.74457922     0.08450
H2432       H  0.39736348  0.40012194  0.75090537     0.05220
C2433       C  0.54541192  0.28626240  0.91613972    -0.20580
C2434       C  0.55174258  0.27733225  0.94980480    -0.07150
C2435       C  0.58344177  0.28777689  0.96649730     0.13720
C2436       C  0.60735677  0.30859890  0.94950358    -0.20630
C2437       C  0.60054187  0.31794686  0.91617054    -0.07150
C2438       C  0.56977043  0.30644634  0.89889884     0.13710
C2439       C  0.56169871  0.31680093  0.86306764    -0.23980
H2440       H  0.52046558  0.27877665  0.90382770     0.15000
H2441       H  0.63168505  0.31722159  0.96215721     0.15030
C2442       C  0.59264041  0.27756333  0.00199710    -0.23930
H2443       H  0.53531441  0.30674471  0.85419232     0.05240
H2444       H  0.58349911  0.30677861  0.84629440     0.08460
H2445       H  0.56015118  0.34495614  0.86093917     0.08460
H2446       H  0.57351515  0.25897599  0.01263845     0.08450
H2447       H  0.59207006  0.30059592  0.01789676     0.08450
H2448       H  0.62035828  0.26548969  0.00275412     0.05220
C2449       C  0.44486260  0.28361915  0.09633520    -0.20580
C2450       C  0.43821064  0.31871842  0.09565901    -0.07150
C2451       C  0.44222588  0.33763505  0.06583694     0.13720
C2452       C  0.45206130  0.32041513  0.03669686    -0.20630
C2453       C  0.45844921  0.28516468  0.03728964    -0.07150
C2454       C  0.45561992  0.26652608  0.06747608     0.13710
C2455       C  0.46510434  0.22903972  0.06972281    -0.23980
H2456       H  0.44145339  0.26957542  0.11956007     0.15000
H2457       H  0.45513382  0.33442299  0.01340004     0.15030
C2458       C  0.43532910  0.37557466  0.06445767    -0.23930
H2459       H  0.46340369  0.21936121  0.09588028     0.05240
H2460       H  0.49346379  0.22429227  0.06078861     0.08460
H2461       H  0.44587243  0.21433451  0.05436402     0.08460
H2462       H  0.45485760  0.38839806  0.08120429     0.08450
H2463       H  0.40702948  0.38188448  0.07252877     0.08450
H2464       H  0.43888730  0.38591489  0.03871770     0.05220
C2465       C  0.43364023  0.16674751  0.90010937    -0.20580
C2466       C  0.41733844  0.14200561  0.92009497    -0.07150
C2467       C  0.41792042  0.14497401  0.95539458     0.13720
C2468       C  0.43640720  0.17194233  0.96961794    -0.20630
C2469       C  0.45212052  0.19687477  0.94941088    -0.07150
C2470       C  0.44922580  0.19513288  0.91414023     0.13710
C2471       C  0.46004347  0.22375207  0.89100137    -0.23980
H2472       H  0.43334953  0.16442293  0.87308658     0.15000
H2473       H  0.43855656  0.17367295  0.99667667     0.15030
C2474       C  0.40046117  0.11960647  0.97830221    -0.23930
H2475       H  0.44923635  0.22022906  0.86522524     0.05240
H2476       H  0.49008837  0.22492140  0.88873241     0.08460
H2477       H  0.44866261  0.24832769  0.90031011     0.08460
H2478       H  0.41283541  0.09423257  0.97383939     0.08450
H2479       H  0.37055774  0.11927968  0.97382989     0.08450
H2480       H  0.40476000  0.12571546  0.00516763     0.05220
C2481       C  0.28731073  0.14176381  0.79958245    -0.20580
C2482       C  0.31523749  0.14750866  0.82263141    -0.07150
C2483       C  0.32476354  0.18050112  0.83173560     0.13720
C2484       C  0.30584035  0.20766935  0.81723558    -0.20630
C2485       C  0.27838855  0.20206506  0.79363174    -0.07150
C2486       C  0.26872187  0.16911670  0.78447931     0.13710
C2487       C  0.23917959  0.16312101  0.75902475    -0.23980
H2488       H  0.28055614  0.11604543  0.79319747     0.15000
H2489       H  0.31330615  0.23343274  0.82331288     0.15030
C2490       C  0.35547190  0.18697001  0.85581636    -0.23930
H2491       H  0.23492421  0.13559289  0.75517286     0.05240
H2492       H  0.24672161  0.17449918  0.73454325     0.08460
H2493       H  0.21306766  0.17496953  0.76769966     0.08460
H2494       H  0.38110969  0.17635425  0.84503736     0.08450
H2495       H  0.35001328  0.17465002  0.88035821     0.08450
H2496       H  0.35915253  0.21453285  0.86011989     0.05220
C2497       C  0.27228230  0.29946382  0.68024023    -0.20580
C2498       C  0.29451064  0.28558073  0.70555800    -0.07150
C2499       C  0.33259826  0.28913797  0.70511925     0.13720
C2500       C  0.34774991  0.30709227  0.67878170    -0.20630
C2501       C  0.32542448  0.32226428  0.65390782    -0.07150
C2502       C  0.28721390  0.31861071  0.65463464     0.13710
C2503       C  0.26190011  0.33499734  0.62922358    -0.23980
H2504       H  0.24287321  0.29697764  0.68179807     0.15000
H2505       H  0.37708945  0.31028712  0.67824780     0.15030
C2506       C  0.35692985  0.27579526  0.73312863    -0.23930
H2507       H  0.23312413  0.32765753  0.63314335     0.05240
H2508       H  0.26993031  0.32704866  0.60371941     0.08460
H2509       H  0.26292290  0.36306318  0.63126250     0.08460
H2510       H  0.35550260  0.24771993  0.73476097     0.08450
H2511       H  0.34814063  0.28705835  0.75734473     0.08450
H2512       H  0.38596581  0.28223477  0.72905180     0.05220
C2513       C  0.18987625  0.33169152  0.85256840    -0.20580
C2514       C  0.15937022  0.34345482  0.83422294    -0.07150
C2515       C  0.15961874  0.34356846  0.79886027     0.13720
C2516       C  0.18891351  0.32783635  0.78279833    -0.20630
C2517       C  0.21770682  0.31305224  0.80136639    -0.07150
C2518       C  0.21969196  0.31702361  0.83636611     0.13710
C2519       C  0.25238300  0.30576319  0.85710352    -0.23980
H2520       H  0.19027551  0.33364041  0.87970298     0.15000
H2521       H  0.18812937  0.32496955  0.75577258     0.15030
C2522       C  0.12851048  0.35806333  0.77792524    -0.23930
H2523       H  0.26235929  0.32765841  0.87164929     0.05240
H2524       H  0.27545424  0.29622186  0.84154635     0.08460
H2525       H  0.24446393  0.28540131  0.87486910     0.08460
H2526       H  0.12551065  0.38585260  0.78197768     0.08450
H2527       H  0.10289678  0.34544355  0.78474677     0.08450
H2528       H  0.13308707  0.35413223  0.75068454     0.05220
C2529       C  0.45636880  0.77193460  0.56619823    -0.20580
C2530       C  0.46418323  0.79283804  0.53863458    -0.07150
C2531       C  0.46205843  0.82861207  0.54194119     0.13720
C2532       C  0.45386345  0.84218503  0.57327567    -0.20630
C2533       C  0.44372247  0.82121921  0.60000034    -0.07150
C2534       C  0.44331926  0.78565674  0.59594740     0.13710
C2535       C  0.42776244  0.76196242  0.62172554    -0.23980
H2536       H  0.45828191  0.74453326  0.56378627     0.15000
H2537       H  0.45229975  0.86957644  0.57611263     0.15030
C2538       C  0.46475558  0.85275324  0.51248085    -0.23930
H2539       H  0.43170295  0.73484805  0.61473670     0.05240
H2540       H  0.39793796  0.76683779  0.62435542     0.08460
H2541       H  0.44130167  0.76570681  0.64594483     0.08460
H2542       H  0.44741281  0.84408263  0.49147544     0.08450
H2543       H  0.49341451  0.85497046  0.50418637     0.08450
H2544       H  0.45504403  0.87881098  0.51910817     0.05220
C2545       C  0.31586863  0.92559154  0.54316684    -0.20580
C2546       C  0.30314849  0.95858391  0.55058680    -0.07150
C2547       C  0.30956614  0.97292651  0.58220919     0.13720
C2548       C  0.32905152  0.95379331  0.60596905    -0.20630
C2549       C  0.34159425  0.92088148  0.59863577    -0.07150
C2550       C  0.33517540  0.90635512  0.56712593     0.13710
C2551       C  0.34914743  0.87108699  0.55874243    -0.23980
H2552       H  0.31039402  0.91491621  0.51871646     0.15000
H2553       H  0.33390747  0.96419627  0.63060993     0.15030
C2554       C  0.29480225  0.00772709  0.59127526    -0.23930
H2555       H  0.34217004  0.86403987  0.53261613     0.05240
H2556       H  0.33688790  0.85223702  0.57591512     0.08460
H2557       H  0.37933050  0.86974401  0.56144236     0.08460
H2558       H  0.26464967  0.00876309  0.58812014     0.08450
H2559       H  0.30718585  0.02723233  0.57500422     0.08450
H2560       H  0.30109961  0.01409914  0.61766980     0.05220
C2561       C  0.28480363  0.04707512  0.42979874    -0.20580
C2562       C  0.28692667  0.04979783  0.46483696    -0.07150
C2563       C  0.30156512  0.07909680  0.47937083     0.13720
C2564       C  0.31536159  0.10416117  0.45836451    -0.20630
C2565       C  0.31432612  0.10076086  0.42348930    -0.07150
C2566       C  0.29757170  0.07259593  0.40888018     0.13710
C2567       C  0.29436253  0.06850589  0.37146981    -0.23980
H2568       H  0.27352904  0.02454724  0.41868360     0.15000
H2569       H  0.32760877  0.12638670  0.46916261     0.15030
C2570       C  0.30221768  0.08471054  0.51664978    -0.23930
H2571       H  0.28172627  0.04413145  0.36461902     0.05240
H2572       H  0.32187059  0.06893802  0.36013986     0.08460
H2573       H  0.27702574  0.08945075  0.36076331     0.08460
H2574       H  0.32141955  0.06656819  0.52918274     0.08450
H2575       H  0.27435864  0.08223284  0.52717777     0.08450
H2576       H  0.31194167  0.11043238  0.52239600     0.05220
C2577       C  0.14139646  0.95606608  0.44554852    -0.20580
C2578       C  0.15321955  0.92540164  0.43120004    -0.07150
C2579       C  0.18776959  0.91099292  0.43891297     0.13720
C2580       C  0.21067871  0.92870481  0.46005275    -0.20630
C2581       C  0.19911106  0.95971066  0.47416307    -0.07150
C2582       C  0.16379616  0.97320167  0.46770444     0.13710
C2583       C  0.14931251  0.00474183  0.48491669    -0.23980
H2584       H  0.11428273  0.96618470  0.43999157     0.15000
H2585       H  0.23812248  0.91881482  0.46490143     0.15030
C2586       C  0.20084852  0.87764507  0.42418906    -0.23930
H2587       H  0.12023261  0.01019426  0.47835841     0.05240
H2588       H  0.16508019  0.02723101  0.47751443     0.08460
H2589       H  0.15114501  0.00116391  0.51252049     0.08460
H2590       H  0.20014191  0.87922318  0.39641664     0.08450
H2591       H  0.18314400  0.85681758  0.43270245     0.08450
H2592       H  0.22929678  0.87098904  0.43200566     0.05220
C2593       C  0.57046809  0.79767288  0.38805158    -0.20580
C2594       C  0.60275762  0.80143590  0.40619492    -0.07150
C2595       C  0.60511003  0.79110306  0.44002721     0.13720
C2596       C  0.57460476  0.77812435  0.45536809    -0.20630
C2597       C  0.54147228  0.77731442  0.43817738    -0.07150
C2598       C  0.53911829  0.78645875  0.40395936     0.13710
C2599       C  0.50341092  0.78704448  0.38496485    -0.23980
H2600       H  0.56898107  0.80614869  0.36224878     0.15000
H2601       H  0.57604006  0.77011193  0.48144539     0.15030
C2602       C  0.63931530  0.79412716  0.46025516    -0.23930
H2603       H  0.50651697  0.79755907  0.35923386     0.05240
H2604       H  0.48293600  0.80320204  0.39831112     0.08460
H2605       H  0.49304124  0.76097631  0.38247613     0.08460
H2606       H  0.64729325  0.82107724  0.46116075     0.08450
H2607       H  0.66060462  0.77800293  0.44840771     0.08450
H2608       H  0.63604041  0.78507527  0.48650771     0.05220
C2609       C  0.54561768  0.90338862  0.27448915    -0.20580
C2610       C  0.54553728  0.93904763  0.27465990    -0.07150
C2611       C  0.57642744  0.95660040  0.28545632     0.13720
C2612       C  0.60517799  0.93786885  0.29972883    -0.20630
C2613       C  0.60347672  0.90246920  0.30263481    -0.07150
C2614       C  0.57481393  0.88469564  0.28804991     0.13710
C2615       C  0.57388715  0.84648094  0.28862404    -0.23980
H2616       H  0.52198442  0.89021819  0.26523790     0.15000
H2617       H  0.62825545  0.95094330  0.31026352     0.15030
C2618       C  0.57928182  0.99466075  0.28199125    -0.23930
H2619       H  0.54870478  0.83696268  0.27668653     0.05240
H2620       H  0.57479305  0.83721187  0.31486008     0.08460
H2621       H  0.59777322  0.83581333  0.27480485     0.08460
H2622       H  0.55888570  0.00797291  0.29796343     0.08450
H2623       H  0.57483771  0.00229680  0.25541341     0.08450
H2624       H  0.60666893  0.00337165  0.28972943     0.05220
C2625       C  0.43428569  0.91182695  0.20278247    -0.20580
C2626       C  0.44235112  0.94621122  0.19910530    -0.07150
C2627       C  0.43416125  0.96403132  0.16939024     0.13720
C2628       C  0.41744387  0.94685465  0.14340995    -0.20630
C2629       C  0.41013536  0.91236220  0.14685092    -0.07150
C2630       C  0.41840186  0.89440686  0.17662332     0.13710
C2631       C  0.40981376  0.85738146  0.18109992    -0.23980
H2632       H  0.44097955  0.89859799  0.22604617     0.15000
H2633       H  0.41069423  0.96005436  0.12013983     0.15030
C2634       C  0.44425929  0.00044175  0.16463029    -0.23930
H2635       H  0.41734763  0.84787013  0.20654699     0.05240
H2636       H  0.42520450  0.84180639  0.16256647     0.08460
H2637       H  0.38012186  0.85385741  0.17755773     0.08460
H2638       H  0.47414580  0.00313304  0.16816067     0.08450
H2639       H  0.42930552  0.01688085  0.18273378     0.08450
H2640       H  0.43707778  0.00899908  0.13896333     0.05220
C2641       C  0.46799635  0.04727097  0.30578987    -0.20580
C2642       C  0.44449989  0.02108678  0.29739581    -0.07150
C2643       C  0.40672806  0.02434944  0.30417870     0.13720
C2644       C  0.39309151  0.05509968  0.31655673    -0.20630
C2645       C  0.41665511  0.08116038  0.32494106    -0.07150
C2646       C  0.45463214  0.07708435  0.32011680     0.13710
C2647       C  0.48107034  0.10438863  0.32876329    -0.23980
H2648       H  0.49689075  0.04484928  0.30011639     0.15000
H2649       H  0.36403439  0.05827708  0.32064655     0.15030
C2650       C  0.38036403  0.99586802  0.29974510    -0.23930
H2651       H  0.50958114  0.09733136  0.32169364     0.05240
H2652       H  0.48070183  0.10854539  0.35616656     0.08460
H2653       H  0.47331177  0.12822548  0.31534400     0.08460
H2654       H  0.39412750  0.97147413  0.29303076     0.08450
H2655       H  0.36003318  0.00290422  0.28001647     0.08450
H2656       H  0.36572464  0.99148641  0.32368967     0.05220
C2657       C  0.45563475  0.63938033  0.44121605    -0.20580
C2658       C  0.41921304  0.64013723  0.43109555    -0.07150
C2659       C  0.39584565  0.66831630  0.43845764     0.13720
C2660       C  0.41054931  0.69627019  0.45409545    -0.20630
C2661       C  0.44741100  0.69605576  0.46275431    -0.07150
C2662       C  0.46980551  0.66674736  0.45822526     0.13710
C2663       C  0.50883741  0.66419046  0.47020030    -0.23980
H2664       H  0.47284635  0.61732528  0.43600547     0.15000
H2665       H  0.39387460  0.71910277  0.45775532     0.15030
C2666       C  0.35613573  0.67015670  0.42812860    -0.23930
H2667       H  0.51312000  0.64054454  0.48520635     0.05240
H2668       H  0.51634690  0.68570850  0.48642848     0.08460
H2669       H  0.52715334  0.66372307  0.44812005     0.08460
H2670       H  0.34058642  0.65042773  0.44151763     0.08450
H2671       H  0.35380373  0.66655930  0.40071460     0.08450
H2672       H  0.34310443  0.69514614  0.43418147     0.05220
C2673       C  0.15168343  0.79346881  0.32503690    -0.20580
C2674       C  0.15355717  0.82890254  0.32701054    -0.07150
C2675       C  0.18282240  0.84634025  0.31242451     0.13720
C2676       C  0.21077573  0.82737644  0.29776463    -0.20630
C2677       C  0.20947442  0.79194357  0.29668404    -0.07150
C2678       C  0.17937584  0.77458706  0.30957998     0.13710
C2679       C  0.17592194  0.73662681  0.30645279    -0.23980
H2680       H  0.12853679  0.78058702  0.33571792     0.15000
H2681       H  0.23416334  0.84019481  0.28752481     0.15030
C2682       C  0.18563352  0.88456644  0.31304271    -0.23930
H2683       H  0.14928161  0.72804588  0.31618733     0.05240
H2684       H  0.19764681  0.72307666  0.32102376     0.08460
H2685       H  0.17789906  0.72925786  0.27968534     0.08460
H2686       H  0.18426952  0.89384406  0.33922230     0.08450
H2687       H  0.16312545  0.89649911  0.29802851     0.08450
H2688       H  0.21172309  0.89314019  0.30206267     0.05220
C2689       C  0.28272748  0.68111324  0.31142919    -0.20580
C2690       C  0.30784709  0.70651673  0.30476450    -0.07150
C2691       C  0.34473833  0.70229666  0.31422791     0.13720
C2692       C  0.35589734  0.67145064  0.32876205    -0.20630
C2693       C  0.33050264  0.64613638  0.33561003    -0.07150
C2694       C  0.29348830  0.65159771  0.32808533     0.13710
C2695       C  0.26525281  0.62743161  0.33925124    -0.23980
H2696       H  0.25425181  0.68488307  0.30440682     0.15000
H2697       H  0.38433750  0.66741046  0.33576293     0.15030
C2698       C  0.37174409  0.73040391  0.31062346    -0.23930
H2699       H  0.23741730  0.63506390  0.33048785     0.05240
H2700       H  0.26562469  0.62796781  0.36695809     0.08460
H2701       H  0.27201685  0.60149010  0.33022146     0.08460
H2702       H  0.36126808  0.75347650  0.32366915     0.08450
H2703       H  0.37641257  0.73647794  0.28385242     0.08450
H2704       H  0.39865695  0.72314199  0.32184177     0.05220
C2705       C  0.30695338  0.83417071  0.17189699    -0.20580
C2706       C  0.32011606  0.81283384  0.14651493    -0.07150
C2707       C  0.32527324  0.77759345  0.15256859     0.13720
C2708       C  0.31326613  0.76424213  0.18294949    -0.20630
C2709       C  0.30008862  0.78580729  0.20814605    -0.07150
C2710       C  0.29938929  0.82139347  0.20340176     0.13710
C2711       C  0.29285927  0.84672756  0.23119411    -0.23980
H2712       H  0.30548080  0.86150671  0.16806418     0.15000
H2713       H  0.31451034  0.73700424  0.18720536     0.15030
C2714       C  0.34346259  0.75399734  0.12778647    -0.23930
H2715       H  0.31534659  0.86517263  0.23146888     0.05240
H2716       H  0.29268791  0.83481180  0.25642648     0.08460
H2717       H  0.26660305  0.86081967  0.22683418     0.08460
H2718       H  0.37250239  0.76069247  0.12451190     0.08450
H2719       H  0.32922133  0.75572989  0.10342948     0.08450
H2720       H  0.34305108  0.72711151  0.13636844     0.05220
C2721       C  0.93303474  0.98778334  0.69333439    -0.20580
C2722       C  0.97072933  0.98416286  0.69806943    -0.07150
C2723       C  0.99221835  0.96556430  0.67506152     0.13720
C2724       C  0.97467069  0.94767625  0.64988780    -0.20630
C2725       C  0.93644800  0.94835944  0.64727523    -0.07150
C2726       C  0.91522934  0.96986396  0.66856761     0.13710
C2727       C  0.87398001  0.97350221  0.66866191    -0.23980
H2728       H  0.91674608  0.00225674  0.71119995     0.15000
H2729       H  0.99085408  0.93265002  0.63243252     0.15030
C2730       C  0.03337882  0.96493306  0.67650825    -0.23930
H2731       H  0.86363886  0.96695641  0.69400042     0.05240
H2732       H  0.85946600  0.95737244  0.65094522     0.08460
H2733       H  0.86585890  0.00032116  0.66318052     0.08460
H2734       H  0.04400146  0.95418689  0.70039304     0.08450
H2735       H  0.04341616  0.99114475  0.67338992     0.08450
H2736       H  0.04497077  0.94886800  0.65629592     0.05220
C2737       C  0.06728223  0.97460921  0.80220610    -0.20580
C2738       C  0.03463253  0.95680891  0.80213758    -0.07150
C2739       C  0.03272071  0.92409308  0.81594925     0.13720
C2740       C  0.06422488  0.90980340  0.83036305    -0.20630
C2741       C  0.09665337  0.92804317  0.83105510    -0.07150
C2742       C  0.09864045  0.96035631  0.81638426     0.13710
C2743       C  0.13392242  0.97889551  0.81398045    -0.23980
H2744       H  0.06823860  0.99954038  0.79047297     0.15000
H2745       H  0.06355891  0.88456608  0.84139940     0.15030
C2746       C  0.99773609  0.90481434  0.81579334    -0.23930
H2747       H  0.12996833  0.00403552  0.80154811     0.05240
H2748       H  0.15371766  0.96359642  0.79902548     0.08460
H2749       H  0.14523719  0.98303971  0.83930373     0.08460
H2750       H  0.98866143  0.90073980  0.78958035     0.08450
H2751       H  0.97623051  0.91952412  0.82937742     0.08450
H2752       H  0.00121024  0.87958098  0.82820603     0.05220
C2753       C  0.92880346  0.07001053  0.78940312    -0.20580
C2754       C  0.96554016  0.06129859  0.79442815    -0.07150
C2755       C  0.98737929  0.08029157  0.81623809     0.13720
C2756       C  0.97125491  0.10753521  0.83324653    -0.20630
C2757       C  0.93391308  0.11549842  0.82947183    -0.07150
C2758       C  0.91235431  0.09669099  0.80679459     0.13710
C2759       C  0.87185340  0.10303202  0.80139250    -0.23980
H2760       H  0.91247177  0.05469327  0.77285333     0.15000
H2761       H  0.98782400  0.12225839  0.85009543     0.15030
C2762       C  0.02755774  0.07236058  0.82151144    -0.23930
H2763       H  0.85999979  0.08457041  0.78371175     0.05240
H2764       H  0.86683847  0.12872720  0.79042999     0.08460
H2765       H  0.85707360  0.10043598  0.82549926     0.08460
H2766       H  0.04212461  0.07367611  0.79717904     0.08450
H2767       H  0.03234004  0.04696662  0.83287917     0.08450
H2768       H  0.03978495  0.09042878  0.83924951     0.05220
C2769       C  0.92839720  0.70593157  0.97570835    -0.20580
C2770       C  0.96622509  0.70837259  0.97201106    -0.07150
C2771       C  0.98544721  0.68491640  0.95152193     0.13720
C2772       C  0.96572516  0.66127059  0.93342735    -0.20630
C2773       C  0.92775950  0.65936218  0.93678417    -0.07150
C2774       C  0.90909322  0.68071197  0.95987621     0.13710
C2775       C  0.86922551  0.67740851  0.96872123    -0.23980
H2776       H  0.91362900  0.72397748  0.99114818     0.15000
H2777       H  0.98017939  0.64375442  0.91696964     0.15030
C2778       C  0.02651020  0.68333209  0.94953672    -0.23930
H2779       H  0.85974057  0.69717788  0.98667484     0.05240
H2780       H  0.86485629  0.65237819  0.98086863     0.08460
H2781       H  0.85198646  0.68000546  0.94607808     0.08460
H2782       H  0.03853543  0.68324923  0.97512633     0.08450
H2783       H  0.03703094  0.70458125  0.93443815     0.08450
H2784       H  0.03595014  0.65987246  0.93683899     0.05220
C2785       C  0.98500558  0.80522808  0.08943655    -0.20580
C2786       C  0.96392774  0.79069112  0.06419222    -0.07150
C2787       C  0.92553673  0.79584362  0.06383535     0.13720
C2788       C  0.90922022  0.81360748  0.09000588    -0.20630
C2789       C  0.93031049  0.82792765  0.11529629    -0.07150
C2790       C  0.96863799  0.82511309  0.11422262     0.13710
C2791       C  0.99229161  0.84342704  0.13853382    -0.23980
H2792       H  0.01453152  0.80231668  0.08873802     0.15000
H2793       H  0.87973039  0.81707868  0.09026134     0.15030
C2794       C  0.90151894  0.78437712  0.03549406    -0.23930
H2795       H  0.02147050  0.83780653  0.13401880     0.05240
H2796       H  0.98552733  0.83566454  0.16451661     0.08460
H2797       H  0.98814288  0.87130883  0.13548981     0.08460
H2798       H  0.89960117  0.75639402  0.03623755     0.08450
H2799       H  0.91251828  0.79298662  0.01102697     0.08450
H2800       H  0.87319162  0.79493274  0.03760285     0.05220
C2801       C  0.04097449  0.83812214  0.95989563    -0.20580
C2802       C  0.04908732  0.80497250  0.97097310    -0.07150
C2803       C  0.08381453  0.78978417  0.96582507     0.13720
C2804       C  0.10896510  0.80724308  0.94692756    -0.20630
C2805       C  0.10052928  0.83978822  0.93473151    -0.07150
C2806       C  0.06685807  0.85613282  0.94197209     0.13710
C2807       C  0.05785152  0.89174953  0.92992740    -0.23980
H2808       H  0.01426182  0.84951845  0.96477511     0.15000
H2809       H  0.13532841  0.79549924  0.94166745     0.15030
C2810       C  0.09468165  0.75567608  0.98077677    -0.23930
H2811       H  0.02971424  0.89999367  0.93706514     0.05240
H2812       H  0.05993908  0.89304651  0.90222762     0.08460
H2813       H  0.07714848  0.90978744  0.94117610     0.08460
H2814       H  0.07769519  0.73552202  0.97016500     0.08450
H2815       H  0.09111021  0.75632506  0.00840723     0.08450
H2816       H  0.12371278  0.74879157  0.97553167     0.05220
C2817       C  0.83582939  0.06646879  0.97928022    -0.20580
C2818       C  0.82437114  0.04169443  0.95662114    -0.07150
C2819       C  0.82680748  0.04782580  0.92172331     0.13720
C2820       C  0.83693398  0.07984771  0.91056976    -0.20630
C2821       C  0.84776212  0.10468381  0.93322695    -0.07150
C2822       C  0.84881999  0.09751023  0.96789140     0.13710
C2823       C  0.86282892  0.12261549  0.99287325    -0.23980
H2824       H  0.83410380  0.06175364  0.00603781     0.15000
H2825       H  0.83804940  0.08491784  0.88383062     0.15030
C2826       C  0.82036333  0.02105595  0.89560367    -0.23930
H2827       H  0.85814090  0.11427282  0.01914953     0.05240
H2828       H  0.84883252  0.14754933  0.98886193     0.08460
H2829       H  0.89267015  0.12556456  0.98955314     0.08460
H2830       H  0.79607539  0.02841478  0.88020658     0.08450
H2831       H  0.81641157  0.99547842  0.90658014     0.08450
H2832       H  0.84455991  0.01893980  0.87893579     0.05220
C2833       C  0.72264845  0.93015017  0.94674863    -0.20580
C2834       C  0.72032558  0.96392653  0.95729420    -0.07150
C2835       C  0.68876912  0.98408522  0.95038624     0.13720
C2836       C  0.66005223  0.96977780  0.93258713    -0.20630
C2837       C  0.66218819  0.93571191  0.92276030    -0.07150
C2838       C  0.69390075  0.91564563  0.92961672     0.13710
C2839       C  0.69821725  0.87931756  0.91800896    -0.23980
H2840       H  0.74739632  0.91517599  0.95165217     0.15000
H2841       H  0.63548158  0.98487091  0.92734132     0.15030
C2842       C  0.68421309  0.02015208  0.96220808    -0.23930
H2843       H  0.72592594  0.86856034  0.92360090     0.05240
H2844       H  0.69396196  0.87812985  0.89049889     0.08460
H2845       H  0.67829770  0.86299334  0.93090257     0.08460
H2846       H  0.68206580  0.03735359  0.94009334     0.08450
H2847       H  0.70709771  0.02849320  0.97813146     0.08450
H2848       H  0.65904313  0.02255302  0.97752419     0.05220
C2849       C  0.82561213  0.97498131  0.07126224    -0.20580
C2850       C  0.81463193  0.95343051  0.04549785    -0.07150
C2851       C  0.81597361  0.91784543  0.05037579     0.13720
C2852       C  0.82491590  0.90498220  0.08211706    -0.20630
C2853       C  0.83513562  0.92656302  0.10817746    -0.07150
C2854       C  0.83736961  0.96190645  0.10217806     0.13710
C2855       C  0.85217899  0.98605694  0.12772162    -0.23980
H2856       H  0.82523486  0.00223485  0.06703313     0.15000
H2857       H  0.82555022  0.87769466  0.08619406     0.15030
C2858       C  0.81051128  0.89327700  0.02195704    -0.23930
H2859       H  0.84997819  0.01291511  0.11903929     0.05240
H2860       H  0.88152029  0.98014847  0.13254468     0.08460
H2861       H  0.83675547  0.98401141  0.15129876     0.08460
H2862       H  0.82906863  0.89952078  0.00093873     0.08450
H2863       H  0.78190098  0.89411550  0.01292980     0.08450
H2864       H  0.81681981  0.86664079  0.02984469     0.05220
C2865       C  0.81753239  0.72457739  0.82490847    -0.20580
C2866       C  0.80492918  0.71851442  0.79236690    -0.07150
C2867       C  0.80036152  0.68510887  0.78104608     0.13720
C2868       C  0.80994685  0.65813888  0.80245692    -0.20630
C2869       C  0.82240516  0.66436676  0.83499403    -0.07150
C2870       C  0.82580848  0.69773750  0.84661105     0.13710
C2871       C  0.83842589  0.70498369  0.88168155    -0.23980
H2872       H  0.81969628  0.75050668  0.83361555     0.15000
H2873       H  0.80841311  0.63217554  0.79369710     0.15030
C2874       C  0.78462193  0.67799312  0.74699544    -0.23930
H2875       H  0.83967639  0.73268587  0.88653775     0.05240
H2876       H  0.86611300  0.69361094  0.88593942     0.08460
H2877       H  0.81873948  0.69398881  0.89958162     0.08460
H2878       H  0.80275552  0.68804847  0.72720138     0.08450
H2879       H  0.75708786  0.69025251  0.74457157     0.08450
H2880       H  0.78172575  0.65030126  0.74308553     0.05220
C2881       C  0.68491588  0.79224996  0.79882949    -0.20580
C2882       C  0.71530132  0.81115976  0.79053420    -0.07150
C2883       C  0.71820540  0.84514621  0.80093889     0.13720
C2884       C  0.68902838  0.85998988  0.81817741    -0.20630
C2885       C  0.65842195  0.84102148  0.82634468    -0.07150
C2886       C  0.65659158  0.80653698  0.81726047     0.13710
C2887       C  0.62416536  0.78511832  0.82427068    -0.23980
H2888       H  0.68346790  0.76605104  0.79071038     0.15000
H2889       H  0.69041891  0.88625326  0.82606220     0.15030
C2890       C  0.75237329  0.86515832  0.79560423    -0.23930
H2891       H  0.62926173  0.75805315  0.81758789     0.05240
H2892       H  0.60177106  0.79465103  0.80808647     0.08460
H2893       H  0.61665403  0.78575813  0.85116578     0.08460
H2894       H  0.75691648  0.86978724  0.76852461     0.08450
H2895       H  0.77630125  0.85101133  0.80640544     0.08450
H2896       H  0.75049742  0.89034884  0.80795929     0.05220
C2897       C  0.81842884  0.83929155  0.70834616    -0.20580
C2898       C  0.80621944  0.80651549  0.70194163    -0.07150
C2899       C  0.80685744  0.79332262  0.66932456     0.13720
C2900       C  0.82077239  0.81325850  0.64350960    -0.20630
C2901       C  0.83292200  0.84603925  0.65001349    -0.07150
C2902       C  0.83160454  0.85939414  0.68254097     0.13710
C2903       C  0.84452322  0.89448810  0.69005822    -0.23980
H2904       H  0.81716026  0.84924021  0.73363250     0.15000
H2905       H  0.82283749  0.80311609  0.61835907     0.15030
C2906       C  0.79238532  0.75876699  0.66181693    -0.23930
H2907       H  0.84209659  0.90063325  0.71711863     0.05240
H2908       H  0.82743634  0.91320926  0.67574687     0.08460
H2909       H  0.87363328  0.89670516  0.68279442     0.08460
H2910       H  0.76325294  0.75764663  0.66932721     0.08450
H2911       H  0.80849988  0.73896489  0.67569034     0.08450
H2912       H  0.79419992  0.75310385  0.63471922     0.05220
loop_ 
_geom_bond_atom_site_label_1 
_geom_bond_atom_site_label_2 
_geom_bond_distance 
_geom_bond_site_symmetry_2 
_ccdc_geom_bond_type 
O1           Ni7   1.926       .  S
O1           C22   1.275       .  A
O2          Ni25   1.974       .  S
O2           C11   1.284       .  A
O3           Ni7   1.919       .  S
O3          Ni25   1.941       .  S
O3          Ni19   1.909       .  S
O3           H26   0.967       .  S
C4           O21   1.283       .  A
C4           O13   1.272       .  A
C4          C719   1.527       .  S
O5          Ni24   1.912       .  S
O5           C11   1.273       .  A
O6          Ni24   1.986       .  S
O6            C8   1.285       .  A
Ni7          O10   1.917       .  S
Ni7          O12   1.987       .  S
C8           O18   1.281       .  A
C8          C428   1.552       .  S
O9          Ni25   1.969       .  S
O9           C15   1.286       .  A
O10          C15   1.274       .  A
C11        C1044   1.515       .  S
O12          C14   1.283       .  A
O13         Ni24   1.919       .  S
C14          O20   1.277       .  A
C14         C946   1.547       .  S
C15         C655   1.519       .  S
H16          O17   0.966       .  S
O17         Ni25   1.914       .  S
O17         Ni19   1.943       .  S
O17         Ni24   1.924       .  S
O18         Ni19   1.988       .  S
Ni19         O23   1.976       .  S
Ni19         O21   1.968       .  S
O20         Ni25   1.983       .  S
C22          O23   1.282       .  A
C22        C1132   1.527       .  S
O27         Ni33   1.926       .  S
O27          C48   1.274       .  A
O28         Ni51   1.999       .  S
O28          C37   1.294       .  A
O29         Ni33   1.926       .  S
O29         Ni51   1.946       .  S
O29         Ni45   1.926       .  S
O29          H52   0.968       .  S
C30          O47   1.287       .  A
C30          O39   1.266       .  A
C30         C511   1.537       .  S
O31         Ni50   1.901       .  S
O31          C37   1.269       .  A
O32         Ni50   1.958       .  S
O32          C34   1.281       .  A
Ni33         O36   1.922       .  S
Ni33         O38   1.973       .  S
C34          O44   1.284       .  A
C34         C910   1.531       .  S
O35         Ni51   2.003       .  S
O35          C41   1.297       .  A
O36          C41   1.273       .  A
C37        C1131   1.525       .  S
O38          C40   1.284       .  A
O39         Ni50   1.906       .  S
C40          O46   1.273       .  A
C40         C669   1.527       .  S
C41         C775   1.541       .  S
H42          O43   0.966       .  S
O43         Ni51   1.938       .  S
O43         Ni45   1.948       .  S
O43         Ni50   1.921       .  S
O44         Ni45   1.992       .  S
Ni45         O49   1.988       .  S
Ni45         O47   1.999       .  S
O46         Ni51   1.964       .  S
C48          O49   1.288       .  A
C48        C1334   1.532       .  S
C53        C2866   1.451       .  S
C53          C54   1.398       .  A
C53          C58   1.387       .  A
C54          C55   1.401       .  A
C54          H59   1.083       .  S
C55        C2898   1.450       .  S
C55          C56   1.391       .  A
C56          C57   1.383       .  A
C56          H60   1.084       .  S
C57        C2882   1.444       .  S
C57          C58   1.384       .  A
C58          H61   1.086       .  S
C62        C2834   1.459       .  S
C62          C63   1.392   1_556  A
C62          C67   1.392   1_565  A
C63          C64   1.395       .  A
C63          H68   1.083       .  S
C64        C2850   1.466       .  S
C64          C65   1.400   1_554  A
C65          C66   1.400   1_565  A
C65          H69   1.084   1_566  S
C66        C2818   1.469       .  S
C66          C67   1.398       .  A
C67          H70   1.084       .  S
C71        C2786   1.460       .  S
C71          C72   1.393   1_655  A
C71          C76   1.396       .  A
C72          C73   1.384   1_554  A
C72          H77   1.085       .  S
C73        C2802   1.444       .  S
C73          C74   1.389       .  A
C74          C75   1.393   1_455  A
C74          H78   1.080       .  S
C75        C2770   1.468       .  S
C75          C76   1.403   1_556  A
C76          H79   1.083       .  S
C80        C2722   1.457       .  S
C80          C81   1.398   1_565  A
C80          C85   1.396       .  A
C81          C82   1.397       .  A
C81          H86   1.084       .  S
C82        C2754   1.452       .  S
C82          C83   1.389       .  A
C83          C84   1.383   1_645  A
C83          H87   1.083       .  S
C84        C2738   1.439       .  S
C84          C85   1.386   1_455  A
C85          H88   1.083   1_655  S
O89         Ni97   1.894       .  S
O89          C99   1.279       .  A
O90         Ni97   1.921       .  S
O90         C100   1.286       .  A
O91         Ni97   1.903       .  S
O91         C101   1.280       .  A
O92         Ni97   1.874       .  S
O92         C102   1.272       .  A
O93         Ni98   1.898       .  S
O93         C102   1.280       .  A
O94         Ni98   1.959       .  S
O94         C101   1.291       .  A
O95         Ni98   1.947       .  S
O95         C100   1.288       .  A
O96         Ni98   1.887       .  S
O96          C99   1.274       .  A
Ni97        Ni98   2.397       .  S
C99        C2805   1.436       .  S
C100        C324   1.511       .  S
C101        C261   1.513       .  S
C102       C2741   1.434       .  S
O103       Ni111   1.901       .  S
O103        C113   1.279       .  A
O104       Ni111   1.954       .  S
O104        C114   1.290       .  A
O105       Ni111   1.962       .  S
O105        C115   1.284       .  A
O106       Ni111   1.895       .  S
O106        C116   1.275       .  A
O107       Ni112   1.912       .  S
O107        C116   1.283       .  A
O108       Ni112   1.981       .  S
O108        C115   1.294       .  A
O109       Ni112   1.964       .  S
O109        C114   1.293       .  A
O110       Ni112   1.877       .  S
O110        C113   1.274       .  A
Ni111      Ni112   2.378       .  S
C113       C2789   1.454       .  S
C114        C540   1.548       .  S
C115        C368   1.576       .  S
C116       C2853   1.463       .  S
O117       Ni125   1.917       .  S
O117        C127   1.281       .  A
O118       Ni125   1.959       .  S
O118        C128   1.292       .  A
O119       Ni125   1.937       .  S
O119        C129   1.287       .  A
O120       Ni125   1.873       .  S
O120        C130   1.269       .  A
O121       Ni126   1.918       .  S
O121        C130   1.285       .  A
O122       Ni126   1.983       .  S
O122        C129   1.295       .  A
O123       Ni126   1.964       .  S
O123        C128   1.292       .  A
O124       Ni126   1.879       .  S
O124        C127   1.273       .  A
Ni125      Ni126   2.385       .  S
C127       C2901   1.442       .  S
C128        C858   1.553       .  S
C129        C343   1.554       .  S
C130       C2725   1.458       .  S
O131       Ni139   1.874       .  S
O131        C141   1.271       .  A
O132       Ni139   1.941       .  S
O132        C142   1.290       .  A
O133       Ni139   1.966       .  S
O133        C143   1.293       .  A
O134       Ni139   1.916       .  S
O134        C144   1.281       .  A
O135       Ni140   1.873       .  S
O135        C144   1.272       .  A
O136       Ni140   1.935       .  S
O136        C143   1.288       .  A
O137       Ni140   1.965       .  S
O137        C142   1.292       .  A
O138       Ni140   1.916       .  S
O138        C141   1.284       .  A
Ni139      Ni140   2.387       .  S
C141       C2773   1.462       .  S
C142        C822   1.536       .  S
C143        C280   1.536       .  S
C144       C2869   1.440       .  S
O145       Ni153   1.900       .  S
O145        C155   1.277       .  A
O146       Ni153   1.943       .  S
O146        C156   1.288       .  A
O147       Ni153   1.929       .  S
O147        C157   1.289       .  A
O148       Ni153   1.884       .  S
O148        C158   1.275       .  A
O149       Ni154   1.917       .  S
O149        C158   1.281       .  A
O150       Ni154   1.973       .  S
O150        C157   1.292       .  A
O151       Ni154   1.962       .  S
O151        C156   1.292       .  A
O152       Ni154   1.891       .  S
O152        C155   1.277       .  A
Ni153      Ni154   2.388       .  S
C155       C2885   1.446       .  S
C156        C394   1.533       .  S
C157        C235   1.539       .  S
C158       C2837   1.454       .  S
O159       Ni167   1.894       .  S
O159        C169   1.276       .  A
O160       Ni167   1.952       .  S
O160        C170   1.287       .  A
O161       Ni167   1.967       .  S
O161        C171   1.292       .  A
O162       Ni167   1.913       .  S
O162        C172   1.283       .  A
O163       Ni168   1.872       .  S
O163        C172   1.270       .  A
O164       Ni168   1.953       .  S
O164        C171   1.291       .  A
O165       Ni168   1.965       .  S
O165        C170   1.294       .  A
O166       Ni168   1.906       .  S
O166        C169   1.281       .  A
Ni167      Ni168   2.385       .  S
C169       C2821   1.457       .  S
C170       C1238   1.551       .  S
C171        C566   1.546       .  S
C172       C2757   1.463       .  S
O173       Ni179   1.895       .  S
O173        C194   1.266       .  A
O174       Ni197   1.989       .  S
O174        C183   1.283       .  A
O175       Ni179   1.929       .  S
O175       Ni197   1.939       .  S
O175       Ni191   1.941       .  S
O175        H198   0.967       .  S
C176        O193   1.304       .  A
C176        O185   1.277       .  A
C176       C1012   1.553       .  S
O177       Ni196   1.906       .  S
O177        C183   1.270       .  A
O178       Ni196   1.980       .  S
O178        C180   1.283       .  A
Ni179       O182   1.917       .  S
Ni179       O184   1.961       .  S
C180        O190   1.281       .  A
C180        C427   1.552       .  S
O181       Ni197   1.998       .  S
O181        C187   1.301       .  A
O182        C187   1.274       .  A
C183        C760   1.530       .  S
O184        C186   1.279       .  A
O185       Ni196   1.936       .  S
C186        O192   1.274       .  A
C186       C1277   1.529       .  S
C187        C668   1.525       .  S
H188        O189   0.966       .  S
O189       Ni197   1.944       .  S
O189       Ni191   1.940       .  S
O189       Ni196   1.927       .  S
O190       Ni191   1.987       .  S
Ni191       O195   2.000       .  S
Ni191       O193   2.014       .  S
O192       Ni197   1.967       .  S
C194        O195   1.287       .  A
C194       C1173   1.531       .  S
O199       Ni205   1.932       .  S
O199        C220   1.274       .  A
O200       Ni223   1.997       .  S
O200        C209   1.291       .  A
O201       Ni205   1.925       .  S
O201       Ni223   1.961       .  S
O201       Ni217   1.906       .  S
O201        H224   0.963       .  S
C202        O219   1.284       .  A
C202        O211   1.271       .  A
C202        C654   1.521       .  S
O203       Ni222   1.930       .  S
O203        C209   1.274       .  A
O204       Ni222   1.970       .  S
O204        C206   1.283       .  A
Ni205       O208   1.912       .  S
Ni205       O210   1.979       .  S
C206        O216   1.284       .  A
C206        C923   1.531       .  S
O207       Ni223   1.956       .  S
O207        C213   1.281       .  A
O208        C213   1.271       .  A
C209        C510   1.535       .  S
O210        C212   1.285       .  A
O211       Ni222   1.914       .  S
C212        O218   1.282       .  A
C212       C1172   1.537       .  S
C213       C1309   1.517       .  S
H214        O215   0.968       .  S
O215       Ni223   1.913       .  S
O215       Ni217   1.963       .  S
O215       Ni222   1.920       .  S
O216       Ni217   1.986       .  S
Ni217       O221   2.010       .  S
Ni217       O219   1.963       .  S
O218       Ni223   1.982       .  S
C220        O221   1.296       .  A
C220       C1067   1.547       .  S
O225       Ni231   1.925       .  S
O225        C246   1.271       .  A
O226       Ni249   2.004       .  S
O226        C235   1.296       .  A
O227       Ni231   1.921       .  S
O227       Ni249   1.959       .  S
O227       Ni243   1.932       .  S
O227        H250   0.967       .  S
C228        O245   1.288       .  A
C228        O237   1.268       .  A
C228        C627   1.534       .  S
O229       Ni248   1.924       .  S
O229        C235   1.277       .  A
O230       Ni248   1.989       .  S
O230        C232   1.292       .  A
Ni231       O234   1.921       .  S
Ni231       O236   1.966       .  S
C232        O242   1.286       .  A
C232        C789   1.557       .  S
O233       Ni249   2.008       .  S
O233        C239   1.295       .  A
O234        C239   1.274       .  A
O236        C238   1.279       .  A
O237       Ni248   1.911       .  S
C238        O244   1.281       .  A
C238        C496   1.540       .  S
C239        C961   1.548       .  S
H240        O241   0.967       .  S
O241       Ni249   1.934       .  S
O241       Ni243   1.950       .  S
O241       Ni248   1.925       .  S
O242       Ni243   1.999       .  S
Ni243       O247   1.996       .  S
Ni243       O245   1.990       .  S
O244       Ni249   1.993       .  S
C246        O247   1.290       .  A
C246       C1043   1.531       .  S
O251       Ni257   1.920       .  S
O251        C272   1.272       .  A
O252       Ni275   1.968   1_556  S
O252        C261   1.276       .  A
O253       Ni257   1.922       .  S
O253       Ni275   1.948       .  S
O253       Ni269   1.921       .  S
O253        H276   0.967       .  S
C254        O271   1.291       .  A
C254        O263   1.273       .  A
C254        C626   1.522       .  S
O255       Ni274   1.902       .  S
O255        C261   1.270       .  A
O256       Ni274   1.981       .  S
O256        C258   1.284       .  A
Ni257       O260   1.921       .  S
Ni257       O262   1.973       .  S
C258        O268   1.280       .  A
C258       C1109   1.552       .  S
O259       Ni275   1.957       .  S
O259        C265   1.283       .  A
O260        C265   1.274       .  A
O262        C264   1.279       .  A
O263       Ni274   1.916       .  S
C264        O270   1.273       .  A
C264        C465   1.532       .  S
C265       C1360   1.508       .  S
H266        O267   0.966       .  S
O267       Ni275   1.917   1_556  S
O267       Ni269   1.938   1_556  S
O267       Ni274   1.924       .  S
O268       Ni269   1.988   1_556  S
Ni269       O273   1.985       .  S
Ni269       O271   1.972   1_554  S
O270       Ni275   1.970       .  S
C272        O273   1.284       .  A
C272        C761   1.526       .  S
O277       Ni283   1.877   1_655  S
O277        C298   1.263       .  A
O278       Ni301   1.956   1_556  S
O278        C287   1.270       .  A
O279       Ni283   1.926       .  S
O279       Ni301   1.917       .  S
O279       Ni295   1.946   1_455  S
O279        H302   0.966       .  S
C280        O297   1.294       .  A
C280        O289   1.278       .  A
O281       Ni300   1.892       .  S
O281        C287   1.267       .  A
O282       Ni300   1.974       .  S
O282        C284   1.281       .  A
Ni283       O286   1.928       .  S
Ni283       O288   1.966   1_455  S
C284        O294   1.281       .  A
C284       C1108   1.549       .  S
O285       Ni301   1.992       .  S
O285        C291   1.299       .  A
O286        C291   1.277       .  A
C287        C697   1.502       .  S
O288        C290   1.278       .  A
O289       Ni300   1.936   1_655  S
C290        O296   1.266       .  A
C290       C1200   1.530       .  S
C291       C1278   1.525       .  S
H292        O293   0.966   1_655  S
O293       Ni301   1.950   1_556  S
O293       Ni295   1.921   1_456  S
O293       Ni300   1.914       .  S
O294       Ni295   1.990   1_456  S
Ni295       O299   1.958       .  S
Ni295       O297   1.988   1_554  S
O296       Ni301   1.954   1_655  S
C298        O299   1.273       .  A
C298        C802   1.494       .  S
O303       Ni309   1.921       .  S
O303        C324   1.271       .  A
O304       Ni327   2.000       .  S
O304        C313   1.296       .  A
O305       Ni309   1.915       .  S
O305       Ni327   1.953   1_565  S
O305       Ni321   1.919   1_565  S
O305        H328   0.979       .  S
C306        O323   1.278       .  A
C306        O315   1.263       .  A
C306       C1346   1.499       .  S
O307       Ni326   1.919       .  S
O307        C313   1.270       .  A
O308       Ni326   1.957       .  S
O308        C310   1.281       .  A
Ni309       O312   1.904       .  S
Ni309       O314   1.955       .  S
C310        O320   1.279       .  A
C310        C682   1.516       .  S
O311       Ni327   2.001   1_565  S
O311        C317   1.290       .  A
O312        C317   1.268       .  A
C313        C924   1.536       .  S
O314        C316   1.284       .  A
O315       Ni326   1.904       .  S
C316        O322   1.283       .  A
C316       C1094   1.519       .  S
C317        C497   1.545       .  S
H318        O319   0.970       .  S
O319       Ni327   1.918       .  S
O319       Ni321   1.950       .  S
O319       Ni326   1.922       .  S
O320       Ni321   1.979       .  S
Ni321       O325   1.974   1_545  S
Ni321       O323   1.962       .  S
O322       Ni327   1.982   1_565  S
C324        O325   1.288       .  A
O329       Ni335   1.899       .  S
O329        C350   1.269       .  A
O330       Ni353   1.940       .  S
O330        C339   1.270       .  A
O331       Ni335   1.920       .  S
O331       Ni353   1.917       .  S
O331       Ni347   1.944       .  S
O331        H354   0.967       .  S
C332        O349   1.303       .  A
C332        O341   1.272       .  A
C332        C720   1.544       .  S
O333       Ni352   1.871       .  S
O333        C339   1.262       .  A
O334       Ni352   1.953       .  S
O334        C336   1.276       .  A
Ni335       O338   1.936       .  S
Ni335       O340   1.969       .  S
C336        O346   1.271       .  A
C336       C1215   1.524       .  S
O337       Ni353   2.009       .  S
O337        C343   1.296       .  A
O338        C343   1.278       .  A
C339       C1081   1.477       .  S
O340        C342   1.280       .  A
O341       Ni352   1.921       .  S
C342        O348   1.275       .  A
C342        C960   1.539       .  S
H344        O345   0.967       .  S
O345       Ni353   1.953       .  S
O345       Ni347   1.918       .  S
O345       Ni352   1.927       .  S
O346       Ni347   1.965       .  S
Ni347       O351   1.948       .  S
Ni347       O349   2.018       .  S
O348       Ni353   1.977       .  S
C350        O351   1.277       .  A
C350        C450   1.488       .  S
O355       Ni361   1.873       .  S
O355        C376   1.264       .  A
O356       Ni379   1.963       .  S
O356        C365   1.278       .  A
O357       Ni361   1.928   1_455  S
O357       Ni379   1.924       .  S
O357       Ni373   1.936   1_455  S
O357        H380   0.967       .  S
C358        O375   1.296       .  A
C358        O367   1.276       .  A
C358       C1214   1.517       .  S
O359       Ni378   1.901       .  S
O359        C365   1.270       .  A
O360       Ni378   1.971       .  S
O360        C362   1.279       .  A
Ni361       O364   1.917   1_655  S
Ni361       O366   1.984       .  S
C362        O372   1.282       .  A
C362       C1011   1.556       .  S
O363       Ni379   1.983       .  S
O363        C369   1.295       .  A
O364        C369   1.276       .  A
C365        C525   1.503       .  S
O366        C368   1.282       .  A
O367       Ni378   1.923   1_655  S
C368        O374   1.287       .  A
C369       C1361   1.521       .  S
H370        O371   0.967       .  S
O371       Ni379   1.927   1_655  S
O371       Ni373   1.927       .  S
O371       Ni378   1.924   1_655  S
O372       Ni373   2.000   1_455  S
Ni373       O377   1.973       .  S
Ni373       O375   1.973       .  S
O374       Ni379   2.013   1_655  S
C376        O377   1.277       .  A
C376        C803   1.510       .  S
O381       Ni387   1.895   1_554  S
O381        C402   1.267       .  A
O382       Ni405   1.957       .  S
O382        C391   1.277       .  A
O383       Ni387   1.921   1_544  S
O383       Ni405   1.930   1_554  S
O383       Ni399   1.937   1_545  S
O383        H406   0.966       .  S
C384        O401   1.291       .  A
C384        O393   1.276       .  A
C384        C464   1.536       .  S
O385       Ni404   1.903       .  S
O385        C391   1.269       .  A
O386       Ni404   1.979   1_554  S
O386        C388   1.282       .  A
Ni387       O390   1.924   1_565  S
Ni387       O392   1.957       .  S
C388        O398   1.278       .  A
C388       C1332   1.546       .  S
O389       Ni405   1.981       .  S
O389        C395   1.293       .  A
O390        C395   1.276       .  A
C391        C683   1.501       .  S
O392        C394   1.278       .  A
O393       Ni404   1.932   1_564  S
C394        O400   1.275       .  A
C395        C988   1.520       .  S
H396        O397   0.966       .  S
O397       Ni405   1.933   1_565  S
O397       Ni399   1.929   1_556  S
O397       Ni404   1.925   1_565  S
O398       Ni399   1.979   1_545  S
Ni399       O403   1.965       .  S
Ni399       O401   1.983       .  S
O400       Ni405   1.977   1_565  S
C402        O403   1.275       .  A
C402        C817   1.505       .  S
C407       C2690   1.449       .  S
C407        C408   1.394       .  A
C407        C412   1.393       .  A
C408        C409   1.394       .  A
C408        H413   1.082       .  S
C409       C2709   1.452       .  S
C409        C410   1.392       .  A
C410        C411   1.386       .  A
C410        H414   1.085       .  S
C411       C2677   1.446       .  S
C411        C412   1.386       .  A
C412        H415   1.084       .  S
O416       Ni424   1.863       .  S
O416        C426   1.268       .  A
O417       Ni424   1.951       .  S
O417        C427   1.288       .  A
O418       Ni424   1.970       .  S
O418        C428   1.296       .  A
O419       Ni424   1.915       .  S
O419        C429   1.284       .  A
O420       Ni425   1.866       .  S
O420        C429   1.270       .  A
O421       Ni425   1.943       .  S
O421        C428   1.287       .  A
O422       Ni425   1.976       .  S
O422        C427   1.297       .  A
O423       Ni425   1.918       .  S
O423        C426   1.284       .  A
Ni424      Ni425   2.389       .  S
C426       C2658   1.441       .  S
C429       C2693   1.451       .  S
C430       C2610   1.449       .  S
C430        C431   1.395       .  A
C430        C435   1.385       .  A
C431        C432   1.398       .  A
C431        H436   1.084       .  S
C432       C2642   1.459   1_565  S
C432        C433   1.395       .  A
C433        C434   1.388       .  A
C433        H437   1.083       .  S
C434       C2626   1.440       .  S
C434        C435   1.385       .  A
C435        H438   1.085       .  S
O439       Ni447   1.879       .  S
O439        C449   1.276       .  A
O440       Ni447   1.896       .  S
O440        C450   1.279       .  A
O441       Ni447   1.904       .  S
O441        C451   1.280       .  A
O442       Ni447   1.890       .  S
O442        C452   1.276       .  A
O443       Ni448   1.907       .  S
O443        C452   1.278       .  A
O444       Ni448   1.949       .  S
O444        C451   1.289       .  A
O445       Ni448   1.942       .  S
O445        C450   1.287       .  A
O446       Ni448   1.897       .  S
O446        C449   1.276       .  A
Ni447      Ni448   2.397       .  S
C449       C2613   1.438       .  S
C451        C537   1.498       .  S
C452       C2594   1.443       .  S
O453       Ni461   1.896       .  S
O453        C463   1.281       .  A
O454       Ni461   1.942       .  S
O454        C464   1.289       .  A
O455       Ni461   1.938       .  S
O455        C465   1.286       .  A
O456       Ni461   1.886       .  S
O456        C466   1.275       .  A
O457       Ni462   1.890       .  S
O457        C466   1.276       .  A
O458       Ni462   1.953       .  S
O458        C465   1.292       .  A
O459       Ni462   1.954       .  S
O459        C464   1.290       .  A
O460       Ni462   1.887       .  S
O460        C463   1.274       .  A
Ni461      Ni462   2.393       .  S
C463       C2706   1.450       .  S
C466       C2629   1.432       .  S
C467       C2581   1.455       .  S
C467        C468   1.393   1_565  A
C467        C472   1.391       .  A
C468        C469   1.397       .  A
C468        H473   1.084       .  S
C469       C2562   1.467       .  S
C469        C470   1.398       .  A
C470        C471   1.395   1_545  A
C470        H474   1.082       .  S
C471       C2546   1.452       .  S
C471        C472   1.391       .  A
C472        H475   1.085       .  S
C476       C2597   1.446       .  S
C476        C477   1.380       .  A
C476        C481   1.395       .  A
C477        C478   1.386       .  A
C477        H482   1.084       .  S
C478       C2661   1.445       .  S
C478        C479   1.389       .  A
C479        C480   1.401       .  A
C479        H483   1.084       .  S
C480       C2530   1.467       .  S
C480        C481   1.394       .  A
C481        H484   1.080       .  S
O485       Ni493   1.901       .  S
O485        C495   1.278       .  A
O486       Ni493   1.952       .  S
O486        C496   1.290       .  A
O487       Ni493   1.940       .  S
O487        C497   1.291       .  A
O488       Ni493   1.883       .  S
O488        C498   1.273       .  A
O489       Ni494   1.908       .  S
O489        C498   1.281       .  A
O490       Ni494   1.963       .  S
O490        C497   1.291       .  A
O491       Ni494   1.961       .  S
O491        C496   1.290       .  A
O492       Ni494   1.891       .  S
O492        C495   1.276       .  A
Ni493      Ni494   2.389       .  S
C495       C2549   1.441       .  S
C498       C2533   1.453       .  S
O499       Ni507   1.905       .  S
O499        C509   1.279       .  A
O500       Ni507   1.973       .  S
O500        C510   1.294       .  A
O501       Ni507   1.976       .  S
O501        C511   1.295       .  A
O502       Ni507   1.901       .  S
O502        C512   1.278       .  A
O503       Ni508   1.895       .  S
O503        C512   1.278       .  A
O504       Ni508   1.935       .  S
O504        C511   1.287       .  A
O505       Ni508   1.923       .  S
O505        C510   1.286       .  A
O506       Ni508   1.885       .  S
O506        C509   1.275       .  A
Ni507      Ni508   2.388       .  S
C509       C2645   1.450       .  S
C512       C2565   1.456       .  S
O513       Ni521   1.893       .  S
O513        C523   1.279       .  A
O514       Ni521   1.935       .  S
O514        C524   1.284       .  A
O515       Ni521   1.921       .  S
O515        C525   1.287       .  A
O516       Ni521   1.883       .  S
O516        C526   1.274       .  A
O517       Ni522   1.907       .  S
O517        C526   1.280       .  A
O518       Ni522   1.938       .  S
O518        C525   1.284       .  A
O519       Ni522   1.912       .  S
O519        C524   1.285       .  A
O520       Ni522   1.877       .  S
O520        C523   1.273       .  A
Ni521      Ni522   2.396       .  S
C523       C2674   1.443       .  S
C524        C855   1.499       .  S
C526       C2578   1.441       .  S
O527       Ni533   1.920   1_545  S
O527        C548   1.272       .  A
O528       Ni551   1.952       .  S
O528        C537   1.274       .  A
O529       Ni533   1.922   1_545  S
O529       Ni551   1.940   1_545  S
O529       Ni545   1.921       .  S
O529        H552   0.966       .  S
C530        O547   1.294       .  A
C530        O539   1.272       .  A
C530       C1229   1.531       .  S
O531       Ni550   1.912   1_565  S
O531        C537   1.267       .  A
O532       Ni550   1.963       .  S
O532        C534   1.276       .  A
Ni533       O536   1.919       .  S
Ni533       O538   1.975       .  S
C534        O544   1.281       .  A
C534        C909   1.538       .  S
O535       Ni551   1.957       .  S
O535        C541   1.281       .  A
O536        C541   1.275       .  A
O538        C540   1.281       .  A
O539       Ni550   1.922       .  S
C540        O546   1.278       .  A
C541        C816   1.509       .  S
H542        O543   0.969       .  S
O543       Ni551   1.918       .  S
O543       Ni545   1.944   1_565  S
O543       Ni550   1.927   1_565  S
O544       Ni545   1.992       .  S
Ni545       O549   1.987       .  S
Ni545       O547   1.986       .  S
O546       Ni551   1.990       .  S
C548        O549   1.289       .  A
C548       C1375   1.527       .  S
O553       Ni559   1.922       .  S
O553        C574   1.273       .  A
O554       Ni577   2.000       .  S
O554        C563   1.293       .  A
O555       Ni559   1.918   1_554  S
O555       Ni577   1.960       .  S
O555       Ni571   1.905   1_554  S
O555        H578   0.967       .  S
C556        O573   1.280       .  A
C556        O565   1.270       .  A
C556        C641   1.523       .  S
O557       Ni576   1.927       .  S
O557        C563   1.273       .  A
O558       Ni576   1.972       .  S
O558        C560   1.284       .  A
Ni559       O562   1.902   1_556  S
Ni559       O564   1.966       .  S
C560        O570   1.287       .  A
C560        C774   1.545       .  S
O561       Ni577   1.977       .  S
O561        C567   1.282       .  A
O562        C567   1.268       .  A
C563       C1201   1.535       .  S
O564        C566   1.284       .  A
O565       Ni576   1.906   1_556  S
C566        O572   1.288       .  A
C567       C1374   1.527       .  S
H568        O569   0.965       .  S
O569       Ni577   1.917   1_556  S
O569       Ni571   1.963       .  S
O569       Ni576   1.920   1_556  S
O570       Ni571   2.001   1_554  S
Ni571       O575   1.995       .  S
Ni571       O573   1.970       .  S
O572       Ni577   2.006   1_556  S
C574        O575   1.291       .  A
C574        C989   1.528       .  S
C579       C2498   1.437       .  S
C579        C580   1.388       .  A
C579        C584   1.386       .  A
C580        C581   1.385       .  A
C580        H585   1.086       .  S
C581       C2517   1.445       .  S
C581        C582   1.392       .  A
C582        C583   1.389       .  A
C582        H586   1.085       .  S
C583       C2485   1.436       .  S
C583        C584   1.390       .  A
C584        H587   1.084       .  S
C588       C2434   1.451       .  S
C588        C589   1.389       .  A
C588        C593   1.390       .  A
C589        C590   1.394       .  A
C589        H594   1.082       .  S
C590       C2469   1.461       .  S
C590        C591   1.399       .  A
C591        C592   1.395   1_556  A
C591        H595   1.084   1_556  S
C592       C2453   1.454       .  S
C592        C593   1.389   1_554  A
C593        H596   1.085   1_556  S
C597       C2405   1.441       .  S
C597        C598   1.386       .  A
C597        C602   1.385       .  A
C598        C599   1.382       .  A
C598        H603   1.085       .  S
C599       C2418   1.430       .  S
C599        C600   1.391       .  A
C600        C601   1.387       .  A
C600        H604   1.080       .  S
C601       C2386   1.465       .  S
C601        C602   1.401       .  A
C602        H605   1.084       .  S
C606       C2370   1.450       .  S
C606        C607   1.392       .  A
C606        C611   1.395   1_554  A
C607        C608   1.385   1_554  A
C607        H612   1.085       .  S
C608       C2354   1.441       .  S
C608        C609   1.382       .  A
C609        C610   1.388       .  A
C609        H613   1.085       .  S
C610       C2338   1.440       .  S
C610        C611   1.394       .  A
C611        H614   1.083   1_556  S
O615       Ni623   1.880       .  S
O615        C625   1.276       .  A
O616       Ni623   1.938       .  S
O616        C626   1.290       .  A
O617       Ni623   1.946       .  S
O617        C627   1.285       .  A
O618       Ni623   1.896       .  S
O618        C628   1.276       .  A
O619       Ni624   1.884       .  S
O619        C628   1.276       .  A
O620       Ni624   1.949       .  S
O620        C627   1.292       .  A
O621       Ni624   1.939       .  S
O621        C626   1.287       .  A
O622       Ni624   1.885       .  S
O622        C625   1.272       .  A
Ni623      Ni624   2.395       .  S
C625       C2402   1.433       .  S
C628       C2341   1.433       .  S
O629       Ni637   1.884       .  S
O629        C639   1.274       .  A
O630       Ni637   1.952       .  S
O630        C640   1.288       .  A
O631       Ni637   1.957       .  S
O631        C641   1.292       .  A
O632       Ni637   1.887       .  S
O632        C642   1.278       .  A
O633       Ni638   1.883       .  S
O633        C642   1.274       .  A
O634       Ni638   1.923       .  S
O634        C641   1.284       .  A
O635       Ni638   1.930       .  S
O635        C640   1.289       .  A
O636       Ni638   1.892       .  S
O636        C639   1.277       .  A
Ni637      Ni638   2.395       .  S
C639       C2437   1.435       .  S
C640        C829   1.529       .  S
C642       C2389   1.443       .  S
O643       Ni651   1.897       .  S
O643        C653   1.279       .  A
O644       Ni651   1.938       .  S
O644        C654   1.288       .  A
O645       Ni651   1.920       .  S
O645        C655   1.284       .  A
O646       Ni651   1.872       .  S
O646        C656   1.274       .  A
O647       Ni652   1.902       .  S
O647        C656   1.280       .  A
O648       Ni652   1.953       .  S
O648        C655   1.291       .  A
O649       Ni652   1.939       .  S
O649        C654   1.287       .  A
O650       Ni652   1.875       .  S
O650        C653   1.271       .  A
Ni651      Ni652   2.395       .  S
C653       C2421   1.429       .  S
C656       C2501   1.448       .  S
O657       Ni665   1.903       .  S
O657        C667   1.278       .  A
O658       Ni665   1.953       .  S
O658        C668   1.288       .  A
O659       Ni665   1.957       .  S
O659        C669   1.293       .  A
O660       Ni665   1.887       .  S
O660        C670   1.276       .  A
O661       Ni666   1.889       .  S
O661        C670   1.275       .  A
O662       Ni666   1.933       .  S
O662        C669   1.284       .  A
O663       Ni666   1.927       .  S
O663        C668   1.288       .  A
O664       Ni666   1.884       .  S
O664        C667   1.276       .  A
Ni665      Ni666   2.392       .  S
C667       C2450   1.443       .  S
C670       C2373   1.440       .  S
O671       Ni679   1.915       .  S
O671        C681   1.280       .  A
O672       Ni679   1.942       .  S
O672        C682   1.286       .  A
O673       Ni679   1.908       .  S
O673        C683   1.282       .  A
O674       Ni679   1.883       .  S
O674        C684   1.274       .  A
O675       Ni680   1.893       .  S
O675        C684   1.276       .  A
O676       Ni680   1.941       .  S
O676        C683   1.286       .  A
O677       Ni680   1.950       .  S
O677        C682   1.289       .  A
O678       Ni680   1.898       .  S
O678        C681   1.279       .  A
Ni679      Ni680   2.394       .  S
C681       C2466   1.463       .  S
C684       C2482   1.429       .  S
O685       Ni693   1.900       .  S
O685        C695   1.276       .  A
O686       Ni693   1.915       .  S
O686        C696   1.285       .  A
O687       Ni693   1.902       .  S
O687        C697   1.278       .  A
O688       Ni693   1.877       .  S
O688        C698   1.272       .  A
O689       Ni694   1.893       .  S
O689        C698   1.280       .  A
O690       Ni694   1.941       .  S
O690        C697   1.286       .  A
O691       Ni694   1.944       .  S
O691        C696   1.286       .  A
O692       Ni694   1.882       .  S
O692        C695   1.278       .  A
Ni693      Ni694   2.396       .  S
C695       C2357   1.451       .  S
C696       C1252   1.504       .  S
C698       C2514   1.441       .  S
C699       C2290   1.424       .  S
C699        C700   1.386       .  A
C699        C704   1.383       .  A
C700        C701   1.393       .  A
C700        H705   1.083       .  S
C701       C2325   1.443       .  S
C701        C702   1.390       .  A
C702        C703   1.389       .  A
C702        H706   1.085       .  S
C703       C2309   1.429       .  S
C703        C704   1.373       .  A
C704        H707   1.087       .  S
O708       Ni716   1.859       .  S
O708        C718   1.269       .  A
O709       Ni716   1.933       .  S
O709        C719   1.286       .  A
O710       Ni716   1.975       .  S
O710        C720   1.292       .  A
O711       Ni716   1.922       .  S
O711        C721   1.283       .  A
O712       Ni717   1.883       .  S
O712        C721   1.273       .  A
O713       Ni717   1.941       .  S
O713        C720   1.292       .  A
O714       Ni717   1.955       .  S
O714        C719   1.290       .  A
O715       Ni717   1.907       .  S
O715        C718   1.279       .  A
Ni716      Ni717   2.390       .  S
C718       C2293   1.424       .  S
C721       C2274   1.449       .  S
C722       C2245   1.449       .  S
C722        C723   1.390   1_554  A
C722        C727   1.388       .  A
C723        C724   1.393       .  A
C723        H728   1.085       .  S
C724       C2261   1.453       .  S
C724        C725   1.396       .  A
C725        C726   1.394   1_556  A
C725        H729   1.080       .  S
C726       C2226   1.461       .  S
C726        C727   1.395       .  A
C727        H730   1.085       .  S
C731       C2178   1.459       .  S
C731        C732   1.397       .  A
C731        C736   1.396       .  A
C732        C733   1.392   1_554  A
C732        H737   1.085       .  S
C733       C2213   1.455       .  S
C733        C734   1.389       .  A
C734        C735   1.392   1_556  A
C734        H738   1.085       .  S
C735       C2197   1.453       .  S
C735        C736   1.395       .  A
C736        H739   1.083       .  S
C740       C2277   1.444       .  S
C740        C741   1.389       .  A
C740        C745   1.388       .  A
C741        C742   1.392       .  A
C741        H746   1.085       .  S
C742       C2149   1.458       .  S
C742        C743   1.394       .  A
C743        C744   1.393       .  A
C743        H747   1.084       .  S
C744       C2162   1.446       .  S
C744        C745   1.394       .  A
C745        H748   1.084       .  S
O749       Ni757   1.894       .  S
O749        C759   1.277       .  A
O750       Ni757   1.955       .  S
O750        C760   1.289       .  A
O751       Ni757   1.969       .  S
O751        C761   1.292       .  A
O752       Ni757   1.905       .  S
O752        C762   1.280       .  A
O753       Ni758   1.877       .  S
O753        C762   1.273       .  A
O754       Ni758   1.920       .  S
O754        C761   1.285       .  A
O755       Ni758   1.929       .  S
O755        C760   1.287       .  A
O756       Ni758   1.901       .  S
O756        C759   1.278       .  A
Ni757      Ni758   2.391       .  S
C759       C2181   1.454       .  S
C762       C2146   1.445       .  S
O763       Ni771   1.899       .  S
O763        C773   1.277       .  A
O764       Ni771   1.951       .  S
O764        C774   1.287       .  A
O765       Ni771   1.944       .  S
O765        C775   1.291       .  A
O766       Ni771   1.895       .  S
O766        C776   1.279       .  A
O767       Ni772   1.896       .  S
O767        C776   1.276       .  A
O768       Ni772   1.965       .  S
O768        C775   1.292       .  A
O769       Ni772   1.964       .  S
O769        C774   1.294       .  A
O770       Ni772   1.892       .  S
O770        C773   1.277       .  A
Ni771      Ni772   2.388       .  S
C773       C2165   1.444       .  S
C776       C2229   1.458       .  S
O777       Ni785   1.896       .  S
O777        C787   1.278       .  A
O778       Ni785   1.966       .  S
O778        C788   1.294       .  A
O779       Ni785   1.964       .  S
O779        C789   1.293       .  A
O780       Ni785   1.900       .  S
O780        C790   1.278       .  A
O781       Ni786   1.907       .  S
O781        C790   1.278       .  A
O782       Ni786   1.972       .  S
O782        C789   1.295       .  A
O783       Ni786   1.948       .  S
O783        C788   1.290       .  A
O784       Ni786   1.889       .  S
O784        C787   1.276       .  A
Ni785      Ni786   2.388       .  S
C787       C2210   1.456       .  S
C788        C826   1.548       .  S
C790       C2258   1.450       .  S
O791       Ni799   1.875       .  S
O791        C801   1.272       .  A
O792       Ni799   1.916       .  S
O792        C802   1.286       .  A
O793       Ni799   1.941       .  S
O793        C803   1.285       .  A
O794       Ni799   1.902       .  S
O794        C804   1.280       .  A
O795       Ni800   1.883       .  S
O795        C804   1.275       .  A
O796       Ni800   1.920       .  S
O796        C803   1.287       .  A
O797       Ni800   1.926       .  S
O797        C802   1.281       .  A
O798       Ni800   1.880       .  S
O798        C801   1.278       .  A
Ni799      Ni800   2.399       .  S
C801       C2306   1.427       .  S
C804       C2242   1.445       .  S
O805       Ni813   1.897       .  S
O805        C815   1.278       .  A
O806       Ni813   1.953       .  S
O806        C816   1.290       .  A
O807       Ni813   1.936       .  S
O807        C817   1.285       .  A
O808       Ni813   1.886       .  S
O808        C818   1.277       .  A
O809       Ni814   1.885       .  S
O809        C818   1.274       .  A
O810       Ni814   1.912       .  S
O810        C817   1.284       .  A
O811       Ni814   1.919       .  S
O811        C816   1.284       .  A
O812       Ni814   1.889       .  S
O812        C815   1.276       .  A
Ni813      Ni814   2.398       .  S
C815       C2194   1.441       .  S
C818       C2322   1.433       .  S
O819       Ni825   1.901       .  S
O819        C840   1.265       .  A
O820       Ni843   1.992       .  S
O820        C829   1.289       .  A
O821       Ni825   1.919       .  S
O821       Ni843   1.943       .  S
O821       Ni837   1.940       .  S
O821        H844   0.967       .  S
C822        O839   1.289       .  A
C822        O831   1.276       .  A
O823       Ni842   1.898       .  S
O823        C829   1.267       .  A
O824       Ni842   1.980       .  S
O824        C826   1.280       .  A
Ni825       O828   1.938       .  S
Ni825       O830   1.958       .  S
C826        O836   1.277       .  A
O827       Ni843   2.025       .  S
O827        C833   1.304       .  A
O828        C833   1.274       .  A
O830        C832   1.272       .  A
O831       Ni842   1.935       .  S
C832        O838   1.277       .  A
C832       C1186   1.533       .  S
C833        C947   1.560       .  S
H834        O835   0.967       .  S
O835       Ni843   1.946       .  S
O835       Ni837   1.928       .  S
O835       Ni842   1.918       .  S
O836       Ni837   1.988       .  S
Ni837       O841   1.947       .  S
Ni837       O839   1.985       .  S
O838       Ni843   1.984       .  S
C840        O841   1.273       .  A
C840       C1080   1.488       .  S
O845       Ni851   1.904   1_655  S
O845        C866   1.269       .  A
O846       Ni869   1.959       .  S
O846        C855   1.280       .  A
O847       Ni851   1.922       .  S
O847       Ni869   1.946   1_545  S
O847       Ni863   1.926   1_455  S
O847        H870   0.966       .  S
C848        O865   1.290       .  A
C848        O857   1.272       .  A
C848       C1228   1.531       .  S
O849       Ni868   1.902   1_565  S
O849        C855   1.269       .  A
O850       Ni868   1.965       .  S
O850        C852   1.280       .  A
Ni851       O854   1.902   1_545  S
Ni851       O856   1.977   1_445  S
C852        O862   1.284       .  A
C852       C1310   1.546       .  S
O853       Ni869   1.984       .  S
O853        C859   1.283       .  A
O854        C859   1.271       .  A
O856        C858   1.285       .  A
O857       Ni868   1.910   1_655  S
C858        O864   1.284       .  A
C859       C1095   1.530       .  S
H860        O861   0.966       .  S
O861       Ni869   1.916   1_655  S
O861       Ni863   1.932   1_565  S
O861       Ni868   1.922   1_665  S
O862       Ni863   2.002   1_455  S
Ni863       O867   1.972       .  S
Ni863       O865   1.993       .  S
O864       Ni869   2.002   1_655  S
C866        O867   1.287       .  A
C866        C974   1.506       .  S
C871       C2098   1.451       .  S
C871        C872   1.387       .  A
C871        C876   1.394       .  A
C872        C873   1.383   1_545  A
C872        H877   1.086       .  S
C873       C2133   1.445       .  S
C873        C874   1.391   1_565  A
C874        C875   1.396       .  A
C874        H878   1.084   1_545  S
C875       C2117   1.453       .  S
C875        C876   1.397       .  A
C876        H879   1.083       .  S
C880       C2066   1.457       .  S
C880        C881   1.397   1_565  A
C880        C885   1.391   1_565  A
C881        C882   1.401       .  A
C881        H886   1.082   1_545  S
C882       C2050   1.456       .  S
C882        C883   1.390       .  A
C883        C884   1.385       .  A
C883        H887   1.085       .  S
C884       C2082   1.446       .  S
C884        C885   1.389       .  A
C885        H888   1.085       .  S
C889       C2002   1.453       .  S
C889        C890   1.390       .  A
C889        C894   1.388       .  A
C890        C891   1.392       .  A
C890        H895   1.081       .  S
C891       C2037   1.481       .  S
C891        C892   1.409       .  A
C892        C893   1.402       .  A
C892        H896   1.081       .  S
C893       C2021   1.474       .  S
C893        C894   1.399       .  A
C894        H897   1.085       .  S
O898       Ni906   1.901       .  S
O898        C908   1.277       .  A
O899       Ni906   1.954       .  S
O899        C909   1.290       .  A
O900       Ni906   1.958       .  S
O900        C910   1.292       .  A
O901       Ni906   1.905       .  S
O901        C911   1.278       .  A
O902       Ni907   1.893       .  S
O902        C911   1.275       .  A
O903       Ni907   1.950       .  S
O903        C910   1.287       .  A
O904       Ni907   1.948       .  S
O904        C909   1.291       .  A
O905       Ni907   1.913       .  S
O905        C908   1.282       .  A
Ni906      Ni907   2.388       .  S
C908       C2018   1.472       .  S
C911       C2053   1.447       .  S
O912       Ni920   1.877       .  S
O912        C922   1.274       .  A
O913       Ni920   1.931       .  S
O913        C923   1.281       .  A
O914       Ni920   1.936       .  S
O914        C924   1.291       .  A
O915       Ni920   1.901       .  S
O915        C925   1.281       .  A
O916       Ni921   1.887       .  S
O916        C925   1.273       .  A
O917       Ni921   1.956       .  S
O917        C924   1.289       .  A
O918       Ni921   1.969       .  S
O918        C923   1.294       .  A
O919       Ni921   1.907       .  S
O919        C922   1.280       .  A
Ni920      Ni921   2.391       .  S
C922       C2101   1.448       .  S
C925       C2005   1.450       .  S
C926       C1954   1.441       .  S
C926        C927   1.386       .  A
C926        C931   1.391       .  A
C927        C928   1.378       .  A
C927        H932   1.086       .  S
C928       C1986   1.439       .  S
C928        C929   1.390       .  A
C929        C930   1.396       .  A
C929        H933   1.082       .  S
C930       C1970   1.459       .  S
C930        C931   1.399       .  A
C931        H934   1.084       .  S
O935       Ni943   1.902       .  S
O935        C945   1.279       .  A
O936       Ni943   1.957       .  S
O936        C946   1.291       .  A
O937       Ni943   1.952       .  S
O937        C947   1.294       .  A
O938       Ni943   1.885       .  S
O938        C948   1.272       .  A
O939       Ni944   1.923       .  S
O939        C948   1.286       .  A
O940       Ni944   1.986       .  S
O940        C947   1.296       .  A
O941       Ni944   1.951       .  S
O941        C946   1.290       .  A
O942       Ni944   1.872       .  S
O942        C945   1.271       .  A
Ni943      Ni944   2.387       .  S
C945       C1957   1.429       .  S
C948       C2034   1.463       .  S
O949       Ni957   1.900       .  S
O949        C959   1.278       .  A
O950       Ni957   1.952       .  S
O950        C960   1.291       .  A
O951       Ni957   1.943       .  S
O951        C961   1.291       .  A
O952       Ni957   1.881       .  S
O952        C962   1.272       .  A
O953       Ni958   1.913       .  S
O953        C962   1.283       .  A
O954       Ni958   1.978       .  S
O954        C961   1.294       .  A
O955       Ni958   1.952       .  S
O955        C960   1.290       .  A
O956       Ni958   1.878       .  S
O956        C959   1.274       .  A
Ni957      Ni958   2.388       .  S
C959       C2130   1.443       .  S
C962       C2069   1.453       .  S
O963       Ni971   1.890       .  S
O963        C973   1.278       .  A
O964       Ni971   1.914       .  S
O964        C974   1.285       .  A
O965       Ni971   1.900       .  S
O965        C975   1.278       .  A
O966       Ni971   1.869       .  S
O966        C976   1.270       .  A
O967       Ni972   1.909       .  S
O967        C976   1.282       .  A
O968       Ni972   1.962       .  S
O968        C975   1.293       .  A
O969       Ni972   1.944       .  S
O969        C974   1.287       .  A
O970       Ni972   1.886       .  S
O970        C973   1.273       .  A
Ni971      Ni972   2.395       .  S
C973       C1989   1.436       .  S
C975       C1241   1.508       .  S
C976       C2085   1.444       .  S
O977       Ni985   1.899       .  S
O977        C987   1.277       .  A
O978       Ni985   1.964       .  S
O978        C988   1.292       .  A
O979       Ni985   1.970       .  S
O979        C989   1.292       .  A
O980       Ni985   1.907       .  S
O980        C990   1.279       .  A
O981       Ni986   1.891       .  S
O981        C990   1.275       .  A
O982       Ni986   1.919       .  S
O982        C989   1.286       .  A
O983       Ni986   1.918       .  S
O983        C988   1.282       .  A
O984       Ni986   1.884       .  S
O984        C987   1.276       .  A
Ni985      Ni986   2.390       .  S
C987       C1973   1.446       .  S
C990       C2114   1.447       .  S
C991       C1941   1.453       .  S
C991        C992   1.392       .  A
C991        C996   1.399       .  A
C992        C993   1.378       .  A
C992        H997   1.084       .  S
C993       C1922   1.447   1_455  S
C993        C994   1.391       .  A
C994        C995   1.393       .  A
C994        H998   1.085   1_455  S
C995       C1906   1.462       .  S
C995        C996   1.401       .  A
C996        H999   1.082       .  S
O1000     Ni1008   1.899       .  S
O1000      C1010   1.276       .  A
O1001     Ni1008   1.978       .  S
O1001      C1011   1.296       .  A
O1002     Ni1008   1.984       .  S
O1002      C1012   1.297       .  A
O1003     Ni1008   1.920       .  S
O1003      C1013   1.282       .  A
O1004     Ni1009   1.884       .  S
O1004      C1013   1.274       .  A
O1005     Ni1009   1.943       .  S
O1005      C1012   1.290       .  A
O1006     Ni1009   1.955       .  S
O1006      C1011   1.291       .  A
O1007     Ni1009   1.905       .  S
O1007      C1010   1.280       .  A
Ni1008    Ni1009   2.385       .  S
C1010      C1893   1.461       .  S
C1013      C1909   1.450       .  S
C1014      C1842   1.449       .  S
C1014      C1015   1.391       .  A
C1014      C1019   1.384       .  A
C1015      C1016   1.392       .  A
C1015      H1020   1.085       .  S
C1016      C1874   1.452       .  S
C1016      C1017   1.397       .  A
C1017      C1018   1.397       .  A
C1017      H1021   1.082       .  S
C1018      C1858   1.457       .  S
C1018      C1019   1.392       .  A
C1019      H1022   1.084       .  S
C1023      C1810   1.454       .  S
C1023      C1024   1.396       .  A
C1023      C1028   1.394       .  A
C1024      C1025   1.396       .  A
C1024      H1029   1.084       .  S
C1025      C1890   1.454       .  S
C1025      C1026   1.386       .  A
C1026      C1027   1.390       .  A
C1026      H1030   1.085       .  S
C1027      C1826   1.451       .  S
C1027      C1028   1.393       .  A
C1028      H1031   1.082       .  S
O1032     Ni1040   1.897       .  S
O1032      C1042   1.277       .  A
O1033     Ni1040   1.927       .  S
O1033      C1043   1.287       .  A
O1034     Ni1040   1.909       .  S
O1034      C1044   1.283       .  A
O1035     Ni1040   1.880       .  S
O1035      C1045   1.274       .  A
O1036     Ni1041   1.891       .  S
O1036      C1045   1.278       .  A
O1037     Ni1041   1.958       .  S
O1037      C1044   1.290       .  A
O1038     Ni1041   1.973       .  S
O1038      C1043   1.292       .  A
O1039     Ni1041   1.907       .  S
O1039      C1042   1.279       .  A
Ni1040    Ni1041   2.391       .  S
C1042      C1813   1.449       .  S
C1045      C1845   1.441       .  S
C1046      C1778   1.454       .  S
C1046      C1047   1.395       .  A
C1046      C1051   1.395   1_455  A
C1047      C1048   1.395       .  A
C1047      H1052   1.083       .  S
C1048      C1794   1.450       .  S
C1048      C1049   1.389   1_455  A
C1049      C1050   1.386       .  A
C1049      H1053   1.086       .  S
C1050      C1765   1.450       .  S
C1050      C1051   1.393       .  A
C1051      H1054   1.084       .  S
O1055     Ni1063   1.900       .  S
O1055      C1065   1.280       .  A
O1056     Ni1063   1.977       .  S
O1056      C1066   1.298       .  A
O1057     Ni1063   1.963       .  S
O1057      C1067   1.290       .  A
O1058     Ni1063   1.888       .  S
O1058      C1068   1.274       .  A
O1059     Ni1064   1.912       .  S
O1059      C1068   1.281       .  A
O1060     Ni1064   1.946       .  S
O1060      C1067   1.294       .  A
O1061     Ni1064   1.942       .  S
O1061      C1066   1.285       .  A
O1062     Ni1064   1.882       .  S
O1062      C1065   1.273       .  A
Ni1063    Ni1064   2.389       .  S
C1065      C1829   1.446       .  S
C1066      C1244   1.545       .  S
C1068      C1781   1.450       .  S
O1069     Ni1077   1.889       .  S
O1069      C1079   1.276       .  A
O1070     Ni1077   1.898       .  S
O1070      C1080   1.279       .  A
O1071     Ni1077   1.890       .  S
O1071      C1081   1.277       .  A
O1072     Ni1077   1.878       .  S
O1072      C1082   1.275       .  A
O1073     Ni1078   1.894       .  S
O1073      C1082   1.276       .  A
O1074     Ni1078   1.932       .  S
O1074      C1081   1.284       .  A
O1075     Ni1078   1.940       .  S
O1075      C1080   1.286       .  A
O1076     Ni1078   1.906       .  S
O1076      C1079   1.278       .  A
Ni1077    Ni1078   2.398       .  S
C1079      C1925   1.444       .  S
C1082      C1762   1.434       .  S
O1083     Ni1091   1.913       .  S
O1083      C1093   1.282       .  A
O1084     Ni1091   1.945       .  S
O1084      C1094   1.288       .  A
O1085     Ni1091   1.919       .  S
O1085      C1095   1.283       .  A
O1086     Ni1091   1.871       .  S
O1086      C1096   1.271       .  A
O1087     Ni1092   1.924       .  S
O1087      C1096   1.284       .  A
O1088     Ni1092   1.972       .  S
O1088      C1095   1.292       .  A
O1089     Ni1092   1.943       .  S
O1089      C1094   1.287       .  A
O1090     Ni1092   1.878       .  S
O1090      C1093   1.274       .  A
Ni1091    Ni1092   2.387       .  S
C1093      C1938   1.455       .  S
C1096      C1877   1.448       .  S
O1097     Ni1105   1.884       .  S
O1097      C1107   1.276       .  A
O1098     Ni1105   1.958       .  S
O1098      C1108   1.289       .  A
O1099     Ni1105   1.962       .  S
O1099      C1109   1.294       .  A
O1100     Ni1105   1.902       .  S
O1100      C1110   1.277       .  A
O1101     Ni1106   1.885       .  S
O1101      C1110   1.274       .  A
O1102     Ni1106   1.960       .  S
O1102      C1109   1.292       .  A
O1103     Ni1106   1.959       .  S
O1103      C1108   1.293       .  A
O1104     Ni1106   1.899       .  S
O1104      C1107   1.279       .  A
Ni1105    Ni1106   2.388       .  S
C1107      C1861   1.456       .  S
C1110      C1797   1.443       .  S
C1111      C1730   1.445       .  S
C1111      C1112   1.383       .  A
C1111      C1116   1.389       .  A
C1112      C1113   1.390       .  A
C1112      H1117   1.084       .  S
C1113      C1746   1.443       .  S
C1113      C1114   1.396       .  A
C1114      C1115   1.395       .  A
C1114      H1118   1.084       .  S
C1115      C1717   1.450       .  S
C1115      C1116   1.388       .  A
C1116      H1119   1.086       .  S
O1120     Ni1128   1.889       .  S
O1120      C1130   1.276       .  A
O1121     Ni1128   1.967       .  S
O1121      C1131   1.291       .  A
O1122     Ni1128   1.965       .  S
O1122      C1132   1.294       .  A
O1123     Ni1128   1.894       .  S
O1123      C1133   1.279       .  A
O1124     Ni1129   1.881       .  S
O1124      C1133   1.274       .  A
O1125     Ni1129   1.911       .  S
O1125      C1132   1.282       .  A
O1126     Ni1129   1.913       .  S
O1126      C1131   1.285       .  A
O1127     Ni1129   1.879       .  S
O1127      C1130   1.275       .  A
Ni1128    Ni1129   2.394       .  S
C1130      C1698   1.435       .  S
C1133      C1733   1.445       .  S
C1134      C1666   1.448       .  S
C1134      C1135   1.394       .  A
C1134      C1139   1.399       .  A
C1135      C1136   1.392       .  A
C1135      H1140   1.084       .  S
C1136      C1701   1.443       .  S
C1136      C1137   1.382       .  A
C1137      C1138   1.384       .  A
C1137      H1141   1.086       .  S
C1138      C1682   1.445       .  S
C1138      C1139   1.391       .  A
C1139      H1142   1.084       .  S
C1143      C1618   1.455       .  S
C1143      C1144   1.390       .  A
C1143      C1148   1.394       .  A
C1144      C1145   1.385   1_655  A
C1144      H1149   1.085   1_655  S
C1145      C1650   1.451       .  S
C1145      C1146   1.392       .  A
C1146      C1147   1.398   1_455  A
C1146      H1150   1.084       .  S
C1147      C1634   1.466       .  S
C1147      C1148   1.400       .  A
C1148      H1151   1.082       .  S
C1152      C1570   1.459       .  S
C1152      C1153   1.394       .  A
C1152      C1157   1.396       .  A
C1153      C1154   1.393       .  A
C1153      H1158   1.082       .  S
C1154      C1602   1.450   1_655  S
C1154      C1155   1.389       .  A
C1155      C1156   1.386       .  A
C1155      H1159   1.083   1_655  S
C1156      C1586   1.447       .  S
C1156      C1157   1.389       .  A
C1157      H1160   1.084       .  S
O1161     Ni1169   1.905       .  S
O1161      C1171   1.279       .  A
O1162     Ni1169   1.968       .  S
O1162      C1172   1.296       .  A
O1163     Ni1169   1.956       .  S
O1163      C1173   1.290       .  A
O1164     Ni1169   1.883       .  S
O1164      C1174   1.273       .  A
O1165     Ni1170   1.888       .  S
O1165      C1174   1.279       .  A
O1166     Ni1170   1.928       .  S
O1166      C1173   1.288       .  A
O1167     Ni1170   1.934       .  S
O1167      C1172   1.284       .  A
O1168     Ni1170   1.887       .  S
O1168      C1171   1.276       .  A
Ni1169    Ni1170   2.394       .  S
C1171      C1653   1.444       .  S
C1174      C1605   1.444       .  S
O1175     Ni1183   1.901       .  S
O1175      C1185   1.282       .  A
O1176     Ni1183   1.948       .  S
O1176      C1186   1.290       .  A
O1177     Ni1183   1.926       .  S
O1177      C1187   1.285       .  A
O1178     Ni1183   1.879       .  S
O1178      C1188   1.273       .  A
O1179     Ni1184   1.921       .  S
O1179      C1188   1.283       .  A
O1180     Ni1184   1.963       .  S
O1180      C1187   1.294       .  A
O1181     Ni1184   1.958       .  S
O1181      C1186   1.290       .  A
O1182     Ni1184   1.879       .  S
O1182      C1185   1.272       .  A
Ni1183    Ni1184   2.389       .  S
C1185      C1573   1.449       .  S
C1187      C1245   1.533       .  S
C1188      C1669   1.451       .  S
O1189     Ni1197   1.893       .  S
O1189      C1199   1.277       .  A
O1190     Ni1197   1.937       .  S
O1190      C1200   1.285       .  A
O1191     Ni1197   1.932       .  S
O1191      C1201   1.290       .  A
O1192     Ni1197   1.886       .  S
O1192      C1202   1.276       .  A
O1193     Ni1198   1.913       .  S
O1193      C1202   1.282       .  A
O1194     Ni1198   1.965       .  S
O1194      C1201   1.291       .  A
O1195     Ni1198   1.956       .  S
O1195      C1200   1.291       .  A
O1196     Ni1198   1.889       .  S
O1196      C1199   1.275       .  A
Ni1197    Ni1198   2.389       .  S
C1199      C1749   1.436       .  S
C1202      C1637   1.461       .  S
O1203     Ni1211   1.879       .  S
O1203      C1213   1.275       .  A
O1204     Ni1211   1.928       .  S
O1204      C1214   1.287       .  A
O1205     Ni1211   1.933       .  S
O1205      C1215   1.286       .  A
O1206     Ni1211   1.892       .  S
O1206      C1216   1.276       .  A
O1207     Ni1212   1.894       .  S
O1207      C1216   1.277       .  A
O1208     Ni1212   1.953       .  S
O1208      C1215   1.290       .  A
O1209     Ni1212   1.942       .  S
O1209      C1214   1.288       .  A
O1210     Ni1212   1.893       .  S
O1210      C1213   1.277       .  A
Ni1211    Ni1212   2.395       .  S
C1213      C1685   1.439       .  S
C1216      C1621   1.440       .  S
O1217     Ni1225   1.877       .  S
O1217      C1227   1.274       .  A
O1218     Ni1225   1.926       .  S
O1218      C1228   1.283       .  A
O1219     Ni1225   1.949       .  S
O1219      C1229   1.286       .  A
O1220     Ni1225   1.902       .  S
O1220      C1230   1.277       .  A
O1221     Ni1226   1.886       .  S
O1221      C1230   1.275       .  A
O1222     Ni1226   1.954       .  S
O1222      C1229   1.295       .  A
O1223     Ni1226   1.960       .  S
O1223      C1228   1.288       .  A
O1224     Ni1226   1.906       .  S
O1224      C1227   1.281       .  A
Ni1225    Ni1226   2.389       .  S
C1227      C1714   1.445       .  S
C1230      C1589   1.436       .  S
O1231     Ni1237   1.908       .  S
O1231      C1252   1.270       .  A
O1232     Ni1255   1.956       .  S
O1232      C1241   1.276       .  A
O1233     Ni1237   1.924   1_655  S
O1233     Ni1255   1.936       .  S
O1233     Ni1249   1.926   1_655  S
O1233      H1256   0.967       .  S
C1234      O1251   1.288       .  A
C1234      O1243   1.274       .  A
C1234      C1347   1.515       .  S
O1235     Ni1254   1.917       .  S
O1235      C1241   1.274       .  A
O1236     Ni1254   1.985       .  S
O1236      C1238   1.285       .  A
Ni1237     O1240   1.933   1_455  S
Ni1237     O1242   1.974       .  S
C1238      O1248   1.280       .  A
O1239     Ni1255   1.974       .  S
O1239      C1245   1.285       .  A
O1240      C1245   1.274       .  A
O1242      C1244   1.279       .  A
O1243     Ni1254   1.920   1_455  S
C1244      O1250   1.279       .  A
H1246      O1247   0.966       .  S
O1247     Ni1255   1.912   1_455  S
O1247     Ni1249   1.929       .  S
O1247     Ni1254   1.926   1_455  S
O1248     Ni1249   1.986   1_655  S
Ni1249     O1253   1.964       .  S
Ni1249     O1251   1.965       .  S
O1250     Ni1255   1.985   1_455  S
C1252      O1253   1.280       .  A
C1257      C1557   1.447   1_455  S
C1257      C1258   1.395       .  A
C1257      C1262   1.388       .  A
C1258      C1259   1.396   1_554  A
C1258      H1263   1.082       .  S
C1259      C1538   1.454       .  S
C1259      C1260   1.392   1_556  A
C1260      C1261   1.380       .  A
C1260      H1264   1.085   1_554  S
C1261      C1522   1.428       .  S
C1261      C1262   1.383       .  A
C1262      H1265   1.085       .  S
O1266     Ni1274   1.897       .  S
O1266      C1276   1.278       .  A
O1267     Ni1274   1.947       .  S
O1267      C1277   1.288       .  A
O1268     Ni1274   1.924       .  S
O1268      C1278   1.286       .  A
O1269     Ni1274   1.880       .  S
O1269      C1279   1.275       .  A
O1270     Ni1275   1.914       .  S
O1270      C1279   1.282       .  A
O1271     Ni1275   1.959       .  S
O1271      C1278   1.291       .  A
O1272     Ni1275   1.958       .  S
O1272      C1277   1.291       .  A
O1273     Ni1275   1.885       .  S
O1273      C1276   1.273       .  A
Ni1274    Ni1275   2.390       .  S
C1276      C1525   1.433       .  S
C1279      C1506   1.454       .  S
C1280      C1490   1.441       .  S
C1280      C1281   1.396   1_455  A
C1280      C1285   1.383       .  A
C1281      C1282   1.386   1_565  A
C1281      H1286   1.082       .  S
C1282      C1477   1.446       .  S
C1282      C1283   1.383       .  A
C1283      C1284   1.389   1_655  A
C1283      H1287   1.082       .  S
C1284      C1461   1.444       .  S
C1284      C1285   1.390   1_545  A
C1285      H1288   1.084       .  S
C1289      C1509   1.467       .  S
C1289      C1290   1.393       .  A
C1289      C1294   1.402       .  A
C1290      C1291   1.394       .  A
C1290      H1295   1.084       .  S
C1291      C1445   1.460       .  S
C1291      C1292   1.394       .  A
C1292      C1293   1.397       .  A
C1292      H1296   1.085       .  S
C1293      C1429   1.464       .  S
C1293      C1294   1.399       .  A
C1294      H1297   1.083       .  S
O1298     Ni1306   1.864       .  S
O1298      C1308   1.269       .  A
O1299     Ni1306   1.934       .  S
O1299      C1309   1.286       .  A
O1300     Ni1306   1.961       .  S
O1300      C1310   1.295       .  A
O1301     Ni1306   1.912       .  S
O1301      C1311   1.281       .  A
O1302     Ni1307   1.902       .  S
O1302      C1311   1.277       .  A
O1303     Ni1307   1.955       .  S
O1303      C1310   1.289       .  A
O1304     Ni1307   1.941       .  S
O1304      C1309   1.289       .  A
O1305     Ni1307   1.890       .  S
O1305      C1308   1.280       .  A
Ni1306    Ni1307   2.390       .  S
C1308      C1458   1.445       .  S
C1311      C1426   1.457       .  S
C1312      C1410   1.458   1_554  S
C1312      C1313   1.401       .  A
C1312      C1317   1.393       .  A
C1313      C1314   1.393       .  A
C1313      H1318   1.084       .  S
C1314      C1397   1.438   1_545  S
C1314      C1315   1.386       .  A
C1315      C1316   1.375       .  A
C1315      H1319   1.086       .  S
C1316      C1378   1.436       .  S
C1316      C1317   1.391       .  A
C1317      H1320   1.085       .  S
O1321     Ni1329   1.921       .  S
O1321      C1331   1.285       .  A
O1322     Ni1329   1.960       .  S
O1322      C1332   1.291       .  A
O1323     Ni1329   1.853       .  S
O1323      C1333   1.268       .  A
O1324     Ni1329   1.915       .  S
O1324      C1334   1.284       .  A
O1325     Ni1330   1.959       .  S
O1325      C1334   1.291       .  A
O1326     Ni1330   1.913       .  S
O1326      C1333   1.280       .  A
O1327     Ni1330   1.963       .  S
O1327      C1332   1.291       .  A
O1328     Ni1330   1.884       .  S
O1328      C1331   1.273       .  A
Ni1329    Ni1330   2.390       .  S
C1331      C1442   1.452       .  S
C1333      C1381   1.438       .  S
O1335     Ni1343   1.876       .  S
O1335      C1345   1.274       .  A
O1336     Ni1343   1.919       .  S
O1336      C1346   1.288       .  A
O1337     Ni1343   1.938       .  S
O1337      C1347   1.285       .  A
O1338     Ni1343   1.903       .  S
O1338      C1348   1.278       .  A
O1339     Ni1344   1.895       .  S
O1339      C1348   1.278       .  A
O1340     Ni1344   1.934       .  S
O1340      C1347   1.286       .  A
O1341     Ni1344   1.923       .  S
O1341      C1346   1.281       .  A
O1342     Ni1344   1.889       .  S
O1342      C1345   1.277       .  A
Ni1343    Ni1344   2.393       .  S
C1345      C1541   1.448       .  S
C1348      C1413   1.451       .  S
O1349     Ni1357   1.914       .  S
O1349      C1359   1.285       .  A
O1350     Ni1357   1.941       .  S
O1350      C1360   1.286       .  A
O1351     Ni1357   1.909       .  S
O1351      C1361   1.281       .  A
O1352     Ni1357   1.850       .  S
O1352      C1362   1.267       .  A
O1353     Ni1358   1.917       .  S
O1353      C1362   1.282       .  A
O1354     Ni1358   1.969       .  S
O1354      C1361   1.293       .  A
O1355     Ni1358   1.924       .  S
O1355      C1360   1.286       .  A
O1356     Ni1358   1.860       .  S
O1356      C1359   1.266       .  A
Ni1357    Ni1358   2.392       .  S
C1359      C1493   1.437       .  S
C1362      C1394   1.428       .  S
O1363     Ni1371   1.899       .  S
O1363      C1373   1.279       .  A
O1364     Ni1371   1.962       .  S
O1364      C1374   1.291       .  A
O1365     Ni1371   1.949       .  S
O1365      C1375   1.288       .  A
O1366     Ni1371   1.878       .  S
O1366      C1376   1.273       .  A
O1367     Ni1372   1.890       .  S
O1367      C1376   1.278       .  A
O1368     Ni1372   1.931       .  S
O1368      C1375   1.289       .  A
O1369     Ni1372   1.923       .  S
O1369      C1374   1.284       .  A
O1370     Ni1372   1.873       .  S
O1370      C1373   1.274       .  A
Ni1371    Ni1372   2.394       .  S
C1373      C1474   1.442       .  S
C1376      C1554   1.440       .  S
C1377      C1378   1.386       .  A
C1377      C1382   1.381       .  A
C1377      H1384   1.086       .  S
C1378      C1379   1.412       .  A
C1379      C1380   1.392       .  A
C1379      C1386   1.509   1_545  S
C1380      C1381   1.395       .  A
C1380      H1385   1.085       .  S
C1381      C1382   1.420       .  A
C1382      C1383   1.512       .  S
C1383      H1387   1.109       .  S
C1383      H1388   1.111       .  S
C1383      H1389   1.103       .  S
C1386      H1390   1.110       .  S
C1386      H1391   1.109       .  S
C1386      H1392   1.111       .  S
C1393      C1394   1.401       .  A
C1393      C1398   1.385       .  A
C1393      H1400   1.084       .  S
C1394      C1395   1.401       .  A
C1395      C1396   1.392       .  A
C1395      C1402   1.506       .  S
C1396      C1397   1.405       .  A
C1396      H1401   1.085       .  S
C1397      C1398   1.402       .  A
C1398      C1399   1.508   1_565  S
C1399      H1403   1.111   1_545  S
C1399      H1404   1.110       .  S
C1399      H1405   1.110       .  S
C1402      H1406   1.110       .  S
C1402      H1407   1.111       .  S
C1402      H1408   1.111       .  S
C1409      C1410   1.403       .  A
C1409      C1414   1.394       .  A
C1409      H1416   1.084       .  S
C1410      C1411   1.414       .  A
C1411      C1412   1.390       .  A
C1411      C1418   1.511       .  S
C1412      C1413   1.397       .  A
C1412      H1417   1.082       .  S
C1413      C1414   1.407       .  A
C1414      C1415   1.505       .  S
C1415      H1419   1.111   1_545  S
C1415      H1420   1.110       .  S
C1415      H1421   1.106       .  S
C1418      H1422   1.110       .  S
C1418      H1423   1.106   1_556  S
C1418      H1424   1.111       .  S
C1425      C1426   1.401       .  A
C1425      C1430   1.399       .  A
C1425      H1432   1.085       .  S
C1426      C1427   1.408       .  A
C1427      C1428   1.395       .  A
C1427      C1434   1.507       .  S
C1428      C1429   1.402       .  A
C1428      H1433   1.085       .  S
C1429      C1430   1.411       .  A
C1430      C1431   1.507       .  S
C1431      H1435   1.111       .  S
C1431      H1436   1.109       .  S
C1431      H1437   1.110       .  S
C1434      H1438   1.111       .  S
C1434      H1439   1.109       .  S
C1434      H1440   1.111       .  S
C1441      C1442   1.399       .  A
C1441      C1446   1.396       .  A
C1441      H1448   1.085       .  S
C1442      C1443   1.418       .  A
C1443      C1444   1.391       .  A
C1443      C1450   1.513       .  S
C1444      C1445   1.397       .  A
C1444      H1449   1.085       .  S
C1445      C1446   1.411       .  A
C1446      C1447   1.509       .  S
C1447      H1451   1.111       .  S
C1447      H1452   1.110       .  S
C1447      H1453   1.107       .  S
C1450      H1454   1.102       .  S
C1450      H1455   1.110       .  S
C1450      H1456   1.111       .  S
C1457      C1458   1.398       .  A
C1457      C1462   1.383       .  A
C1457      H1464   1.085       .  S
C1458      C1459   1.415       .  A
C1459      C1460   1.383       .  A
C1459      C1466   1.511       .  S
C1460      C1461   1.398       .  A
C1460      H1465   1.084   1_545  S
C1461      C1462   1.408       .  A
C1462      C1463   1.509   1_455  S
C1463      H1467   1.102       .  S
C1463      H1468   1.110       .  S
C1463      H1469   1.102       .  S
C1466      H1470   1.110       .  S
C1466      H1471   1.108       .  S
C1466      H1472   1.111       .  S
C1473      C1474   1.403       .  A
C1473      C1478   1.389       .  A
C1473      H1480   1.085       .  S
C1474      C1475   1.405       .  A
C1475      C1476   1.386       .  A
C1475      C1482   1.507       .  S
C1476      C1477   1.402       .  A
C1476      H1481   1.085       .  S
C1477      C1478   1.405       .  A
C1478      C1479   1.509       .  S
C1479      H1483   1.111       .  S
C1479      H1484   1.107       .  S
C1479      H1485   1.110   1_655  S
C1482      H1486   1.105       .  S
C1482      H1487   1.110       .  S
C1482      H1488   1.110       .  S
C1489      C1490   1.402       .  A
C1489      C1494   1.393       .  A
C1489      H1496   1.085       .  S
C1490      C1491   1.389       .  A
C1491      C1492   1.378       .  A
C1491      C1498   1.481   1_455  S
C1492      C1493   1.390       .  A
C1492      H1497   1.079       .  S
C1493      C1494   1.412       .  A
C1494      C1495   1.508       .  S
C1495      H1499   1.111       .  S
C1495      H1500   1.107       .  S
C1495      H1501   1.109       .  S
C1498      H1502   1.110       .  S
C1498      H1503   1.109       .  S
C1498      H1504   1.105       .  S
C1505      C1506   1.403       .  A
C1505      C1510   1.393       .  A
C1505      H1512   1.085       .  S
C1506      C1507   1.401       .  A
C1507      C1508   1.396       .  A
C1507      C1514   1.502       .  S
C1508      C1509   1.407       .  A
C1508      H1513   1.084       .  S
C1509      C1510   1.411       .  A
C1510      C1511   1.508       .  S
C1511      H1515   1.111       .  S
C1511      H1516   1.110       .  S
C1511      H1517   1.108       .  S
C1514      H1518   1.109       .  S
C1514      H1519   1.110       .  S
C1514      H1520   1.105       .  S
C1521      C1522   1.390       .  A
C1521      C1526   1.384       .  A
C1521      H1528   1.085       .  S
C1522      C1523   1.408       .  A
C1523      C1524   1.386       .  A
C1523      C1530   1.509       .  S
C1524      C1525   1.396       .  A
C1524      H1529   1.086       .  S
C1525      C1526   1.402       .  A
C1526      C1527   1.491       .  S
C1527      H1531   1.106       .  S
C1527      H1532   1.103       .  S
C1527      H1533   1.105       .  S
C1530      H1534   1.110       .  S
C1530      H1535   1.108       .  S
C1530      H1536   1.110       .  S
C1537      C1538   1.402       .  A
C1537      C1542   1.381       .  A
C1537      H1544   1.084       .  S
C1538      C1539   1.408       .  A
C1539      C1540   1.391       .  A
C1539      C1546   1.505   1_455  S
C1540      C1541   1.404       .  A
C1540      H1545   1.085       .  S
C1541      C1542   1.411       .  A
C1542      C1543   1.511       .  S
C1543      H1547   1.111       .  S
C1543      H1548   1.110       .  S
C1543      H1549   1.106       .  S
C1546      H1550   1.108       .  S
C1546      H1551   1.110       .  S
C1546      H1552   1.103       .  S
C1553      C1554   1.401       .  A
C1553      C1558   1.389       .  A
C1553      H1560   1.085       .  S
C1554      C1555   1.408       .  A
C1555      C1556   1.383       .  A
C1555      C1562   1.509       .  S
C1556      C1557   1.401       .  A
C1556      H1561   1.085       .  S
C1557      C1558   1.407       .  A
C1558      C1559   1.507   1_655  S
C1559      H1563   1.111       .  S
C1559      H1564   1.109       .  S
C1559      H1565   1.110       .  S
C1562      H1566   1.109       .  S
C1562      H1567   1.108       .  S
C1562      H1568   1.111       .  S
C1569      C1570   1.401       .  A
C1569      C1574   1.388       .  A
C1569      H1576   1.084       .  S
C1570      C1571   1.416       .  A
C1571      C1572   1.390       .  A
C1571      C1578   1.511   1_655  S
C1572      C1573   1.397       .  A
C1572      H1577   1.085       .  S
C1573      C1574   1.413       .  A
C1574      C1575   1.512       .  S
C1575      H1579   1.111       .  S
C1575      H1580   1.102       .  S
C1575      H1581   1.107       .  S
C1578      H1582   1.106       .  S
C1578      H1583   1.110       .  S
C1578      H1584   1.111       .  S
C1585      C1586   1.398       .  A
C1585      C1590   1.389       .  A
C1585      H1592   1.085       .  S
C1586      C1587   1.413       .  A
C1587      C1588   1.383       .  A
C1587      C1594   1.509       .  S
C1588      C1589   1.393       .  A
C1588      H1593   1.085       .  S
C1589      C1590   1.407       .  A
C1590      C1591   1.500       .  S
C1591      H1595   1.111       .  S
C1591      H1596   1.104       .  S
C1591      H1597   1.110       .  S
C1594      H1598   1.110       .  S
C1594      H1599   1.106       .  S
C1594      H1600   1.111       .  S
C1601      C1602   1.401       .  A
C1601      C1606   1.388       .  A
C1601      H1608   1.083       .  S
C1602      C1603   1.408       .  A
C1603      C1604   1.385       .  A
C1603      C1610   1.509       .  S
C1604      C1605   1.400       .  A
C1604      H1609   1.084       .  S
C1605      C1606   1.410       .  A
C1606      C1607   1.509       .  S
C1607      H1611   1.111       .  S
C1607      H1612   1.110       .  S
C1607      H1613   1.104       .  S
C1610      H1614   1.110   1_455  S
C1610      H1615   1.104   1_455  S
C1610      H1616   1.111       .  S
C1617      C1618   1.402       .  A
C1617      C1622   1.387       .  A
C1617      H1624   1.085       .  S
C1618      C1619   1.409       .  A
C1619      C1620   1.394       .  A
C1619      C1626   1.507       .  S
C1620      C1621   1.399       .  A
C1620      H1625   1.085       .  S
C1621      C1622   1.406       .  A
C1622      C1623   1.510       .  S
C1623      H1627   1.111       .  S
C1623      H1628   1.107       .  S
C1623      H1629   1.110       .  S
C1626      H1630   1.108       .  S
C1626      H1631   1.110       .  S
C1626      H1632   1.109       .  S
C1633      C1634   1.404       .  A
C1633      C1638   1.394       .  A
C1633      H1640   1.084   1_655  S
C1634      C1635   1.413       .  A
C1635      C1636   1.389       .  A
C1635      C1642   1.511       .  S
C1636      C1637   1.402       .  A
C1636      H1641   1.083       .  S
C1637      C1638   1.409       .  A
C1638      C1639   1.503   1_655  S
C1639      H1643   1.110       .  S
C1639      H1644   1.107       .  S
C1639      H1645   1.109       .  S
C1642      H1646   1.110       .  S
C1642      H1647   1.107       .  S
C1642      H1648   1.111       .  S
C1649      C1650   1.401       .  A
C1649      C1654   1.391       .  A
C1649      H1656   1.085       .  S
C1650      C1651   1.408       .  A
C1651      C1652   1.389       .  A
C1651      C1658   1.510       .  S
C1652      C1653   1.400       .  A
C1652      H1657   1.084       .  S
C1653      C1654   1.405       .  A
C1654      C1655   1.501       .  S
C1655      H1659   1.110       .  S
C1655      H1660   1.103       .  S
C1655      H1661   1.110       .  S
C1658      H1662   1.108   1_455  S
C1658      H1663   1.110   1_455  S
C1658      H1664   1.111       .  S
C1665      C1666   1.396       .  A
C1665      C1670   1.383       .  A
C1665      H1672   1.085       .  S
C1666      C1667   1.405       .  A
C1667      C1668   1.396       .  A
C1667      C1674   1.507       .  S
C1668      C1669   1.402       .  A
C1668      H1673   1.075       .  S
C1669      C1670   1.406       .  A
C1670      C1671   1.495       .  S
C1671      H1675   1.111       .  S
C1671      H1676   1.109       .  S
C1671      H1677   1.099       .  S
C1674      H1678   1.110       .  S
C1674      H1679   1.108       .  S
C1674      H1680   1.111       .  S
C1681      C1682   1.399       .  A
C1681      C1686   1.384       .  A
C1681      H1688   1.085       .  S
C1682      C1683   1.407       .  A
C1683      C1684   1.391       .  A
C1683      C1690   1.508       .  S
C1684      C1685   1.401       .  A
C1684      H1689   1.085       .  S
C1685      C1686   1.409       .  A
C1686      C1687   1.511       .  S
C1687      H1691   1.111       .  S
C1687      H1692   1.108       .  S
C1687      H1693   1.110       .  S
C1690      H1694   1.109       .  S
C1690      H1695   1.110       .  S
C1690      H1696   1.111       .  S
C1697      C1698   1.401       .  A
C1697      C1702   1.387       .  A
C1697      H1704   1.085       .  S
C1698      C1699   1.405       .  A
C1699      C1700   1.383       .  A
C1699      C1706   1.510       .  S
C1700      C1701   1.402       .  A
C1700      H1705   1.085       .  S
C1701      C1702   1.406       .  A
C1702      C1703   1.507       .  S
C1703      H1707   1.110       .  S
C1703      H1708   1.108       .  S
C1703      H1709   1.110       .  S
C1706      H1710   1.110       .  S
C1706      H1711   1.110       .  S
C1706      H1712   1.111       .  S
C1713      C1714   1.403       .  A
C1713      C1718   1.392       .  A
C1713      H1720   1.085       .  S
C1714      C1715   1.404       .  A
C1715      C1716   1.387       .  A
C1715      C1722   1.505       .  S
C1716      C1717   1.401       .  A
C1716      H1721   1.085       .  S
C1717      C1718   1.408       .  A
C1718      C1719   1.508       .  S
C1719      H1723   1.111       .  S
C1719      H1724   1.107       .  S
C1719      H1725   1.110       .  S
C1722      H1726   1.110       .  S
C1722      H1727   1.107       .  S
C1722      H1728   1.109       .  S
C1729      C1730   1.395       .  A
C1729      C1734   1.383       .  A
C1729      H1736   1.085       .  S
C1730      C1731   1.410       .  A
C1731      C1732   1.390       .  A
C1731      C1738   1.510       .  S
C1732      C1733   1.400       .  A
C1732      H1737   1.084       .  S
C1733      C1734   1.414       .  A
C1734      C1735   1.508       .  S
C1735      H1739   1.111       .  S
C1735      H1740   1.102       .  S
C1735      H1741   1.109       .  S
C1738      H1742   1.107       .  S
C1738      H1743   1.110       .  S
C1738      H1744   1.111       .  S
C1745      C1746   1.398       .  A
C1745      C1750   1.381       .  A
C1745      H1752   1.085       .  S
C1746      C1747   1.404       .  A
C1747      C1748   1.394       .  A
C1747      C1754   1.500       .  S
C1748      C1749   1.399       .  A
C1748      H1753   1.084       .  S
C1749      C1750   1.405       .  A
C1750      C1751   1.504       .  S
C1751      H1755   1.111       .  S
C1751      H1756   1.109       .  S
C1751      H1757   1.108       .  S
C1754      H1758   1.108       .  S
C1754      H1759   1.108       .  S
C1754      H1760   1.110       .  S
C1761      C1762   1.400       .  A
C1761      C1766   1.388       .  A
C1761      H1768   1.085       .  S
C1762      C1763   1.401       .  A
C1763      C1764   1.388       .  A
C1763      C1770   1.506       .  S
C1764      C1765   1.406       .  A
C1764      H1769   1.085       .  S
C1765      C1766   1.405       .  A
C1766      C1767   1.506       .  S
C1767      H1771   1.111       .  S
C1767      H1772   1.110       .  S
C1767      H1773   1.106       .  S
C1770      H1774   1.110       .  S
C1770      H1775   1.108       .  S
C1770      H1776   1.111       .  S
C1777      C1778   1.398       .  A
C1777      C1782   1.396       .  A
C1777      H1784   1.084       .  S
C1778      C1779   1.408       .  A
C1779      C1780   1.393       .  A
C1779      C1786   1.507   1_455  S
C1780      C1781   1.396       .  A
C1780      H1785   1.083       .  S
C1781      C1782   1.414       .  A
C1782      C1783   1.509       .  S
C1783      H1787   1.111       .  S
C1783      H1788   1.108       .  S
C1783      H1789   1.109       .  S
C1786      H1790   1.106       .  S
C1786      H1791   1.111       .  S
C1786      H1792   1.100       .  S
C1793      C1794   1.403       .  A
C1793      C1798   1.389       .  A
C1793      H1800   1.085       .  S
C1794      C1795   1.401       .  A
C1795      C1796   1.391       .  A
C1795      C1802   1.502       .  S
C1796      C1797   1.398       .  A
C1796      H1801   1.079       .  S
C1797      C1798   1.406       .  A
C1798      C1799   1.508       .  S
C1799      H1803   1.111       .  S
C1799      H1804   1.110       .  S
C1799      H1805   1.110       .  S
C1802      H1806   1.108       .  S
C1802      H1807   1.110       .  S
C1802      H1808   1.106       .  S
C1809      C1810   1.398       .  A
C1809      C1814   1.390       .  A
C1809      H1816   1.085       .  S
C1810      C1811   1.409       .  A
C1811      C1812   1.396       .  A
C1811      C1818   1.507       .  S
C1812      C1813   1.400       .  A
C1812      H1817   1.085       .  S
C1813      C1814   1.408       .  A
C1814      C1815   1.503       .  S
C1815      H1819   1.111       .  S
C1815      H1820   1.107       .  S
C1815      H1821   1.109       .  S
C1818      H1822   1.108       .  S
C1818      H1823   1.110       .  S
C1818      H1824   1.111       .  S
C1825      C1826   1.400       .  A
C1825      C1830   1.384       .  A
C1825      H1832   1.084       .  S
C1826      C1827   1.407       .  A
C1827      C1828   1.393       .  A
C1827      C1834   1.507       .  S
C1828      C1829   1.399       .  A
C1828      H1833   1.080       .  S
C1829      C1830   1.411       .  A
C1830      C1831   1.512       .  S
C1831      H1835   1.111       .  S
C1831      H1836   1.109       .  S
C1831      H1837   1.110       .  S
C1834      H1838   1.107       .  S
C1834      H1839   1.110       .  S
C1834      H1840   1.109       .  S
C1841      C1842   1.398       .  A
C1841      C1846   1.390       .  A
C1841      H1848   1.085       .  S
C1842      C1843   1.410       .  A
C1843      C1844   1.388       .  A
C1843      C1850   1.506       .  S
C1844      C1845   1.395       .  A
C1844      H1849   1.085       .  S
C1845      C1846   1.412       .  A
C1846      C1847   1.510       .  S
C1847      H1851   1.111       .  S
C1847      H1852   1.110       .  S
C1847      H1853   1.109       .  S
C1850      H1854   1.107       .  S
C1850      H1855   1.110       .  S
C1850      H1856   1.108       .  S
C1857      C1858   1.403       .  A
C1857      C1862   1.390       .  A
C1857      H1864   1.085       .  S
C1858      C1859   1.409       .  A
C1859      C1860   1.392       .  A
C1859      C1866   1.510       .  S
C1860      C1861   1.404       .  A
C1860      H1865   1.084       .  S
C1861      C1862   1.410       .  A
C1862      C1863   1.509       .  S
C1863      H1867   1.108       .  S
C1863      H1868   1.110       .  S
C1863      H1869   1.109       .  S
C1866      H1870   1.111       .  S
C1866      H1871   1.107       .  S
C1866      H1872   1.111       .  S
C1873      C1874   1.397       .  A
C1873      C1878   1.388       .  A
C1873      H1880   1.085       .  S
C1874      C1875   1.407       .  A
C1875      C1876   1.399       .  A
C1875      C1882   1.504       .  S
C1876      C1877   1.399       .  A
C1876      H1881   1.082       .  S
C1877      C1878   1.412       .  A
C1878      C1879   1.512       .  S
C1879      H1883   1.111       .  S
C1879      H1884   1.110       .  S
C1879      H1885   1.109       .  S
C1882      H1886   1.110       .  S
C1882      H1887   1.110       .  S
C1882      H1888   1.108       .  S
C1889      C1890   1.394       .  A
C1889      C1894   1.389       .  A
C1889      H1896   1.085       .  S
C1890      C1891   1.415       .  A
C1891      C1892   1.393       .  A
C1891      C1898   1.509       .  S
C1892      C1893   1.398       .  A
C1892      H1897   1.083       .  S
C1893      C1894   1.410       .  A
C1894      C1895   1.494       .  S
C1895      H1899   1.111       .  S
C1895      H1900   1.098       .  S
C1895      H1901   1.107       .  S
C1898      H1902   1.106       .  S
C1898      H1903   1.110       .  S
C1898      H1904   1.111       .  S
C1905      C1906   1.400       .  A
C1905      C1910   1.389       .  A
C1905      H1912   1.085       .  S
C1906      C1907   1.412       .  A
C1907      C1908   1.398       .  A
C1907      C1914   1.508       .  S
C1908      C1909   1.400       .  A
C1908      H1913   1.081       .  S
C1909      C1910   1.405       .  A
C1910      C1911   1.502       .  S
C1911      H1915   1.111       .  S
C1911      H1916   1.106       .  S
C1911      H1917   1.110       .  S
C1914      H1918   1.107       .  S
C1914      H1919   1.110   1_455  S
C1914      H1920   1.111       .  S
C1921      C1922   1.392       .  A
C1921      C1926   1.378       .  A
C1921      H1928   1.086       .  S
C1922      C1923   1.410       .  A
C1923      C1924   1.396       .  A
C1923      C1930   1.507   1_655  S
C1924      C1925   1.398       .  A
C1924      H1929   1.082       .  S
C1925      C1926   1.408       .  A
C1926      C1927   1.494       .  S
C1927      H1931   1.111       .  S
C1927      H1932   1.104       .  S
C1927      H1933   1.108       .  S
C1930      H1934   1.108       .  S
C1930      H1935   1.110       .  S
C1930      H1936   1.111       .  S
C1937      C1938   1.404       .  A
C1937      C1942   1.392       .  A
C1937      H1944   1.085       .  S
C1938      C1939   1.408       .  A
C1939      C1940   1.389       .  A
C1939      C1946   1.502       .  S
C1940      C1941   1.401       .  A
C1940      H1945   1.085       .  S
C1941      C1942   1.405       .  A
C1942      C1943   1.508       .  S
C1943      H1947   1.111       .  S
C1943      H1948   1.109       .  S
C1943      H1949   1.111       .  S
C1946      H1950   1.098       .  S
C1946      H1951   1.109       .  S
C1946      H1952   1.109       .  S
C1953      C1954   1.400       .  A
C1953      C1958   1.386       .  A
C1953      H1960   1.085       .  S
C1954      C1955   1.406       .  A
C1955      C1956   1.389       .  A
C1955      C1962   1.506       .  S
C1956      C1957   1.397       .  A
C1956      H1961   1.085       .  S
C1957      C1958   1.403       .  A
C1958      C1959   1.506       .  S
C1959      H1963   1.111       .  S
C1959      H1964   1.110       .  S
C1959      H1965   1.106       .  S
C1962      H1966   1.110       .  S
C1962      H1967   1.110       .  S
C1962      H1968   1.110       .  S
C1969      C1970   1.403       .  A
C1969      C1974   1.395       .  A
C1969      H1976   1.085       .  S
C1970      C1971   1.415       .  A
C1971      C1972   1.383       .  A
C1971      C1978   1.508       .  S
C1972      C1973   1.393       .  A
C1972      H1977   1.083       .  S
C1973      C1974   1.408       .  A
C1974      C1975   1.506       .  S
C1975      H1979   1.109       .  S
C1975      H1980   1.107       .  S
C1975      H1981   1.109       .  S
C1978      H1982   1.105       .  S
C1978      H1983   1.108       .  S
C1978      H1984   1.111       .  S
C1985      C1986   1.394       .  A
C1985      C1990   1.389       .  A
C1985      H1992   1.085       .  S
C1986      C1987   1.410       .  A
C1987      C1988   1.383       .  A
C1987      C1994   1.506       .  S
C1988      C1989   1.393       .  A
C1988      H1993   1.086       .  S
C1989      C1990   1.409       .  A
C1990      C1991   1.499       .  S
C1991      H1995   1.109       .  S
C1991      H1996   1.108       .  S
C1991      H1997   1.096       .  S
C1994      H1998   1.106       .  S
C1994      H1999   1.110       .  S
C1994      H2000   1.111       .  S
C2001      C2002   1.400       .  A
C2001      C2006   1.394       .  A
C2001      H2008   1.085       .  S
C2002      C2003   1.406       .  A
C2003      C2004   1.388       .  A
C2003      C2010   1.507       .  S
C2004      C2005   1.400       .  A
C2004      H2009   1.084       .  S
C2005      C2006   1.411       .  A
C2006      C2007   1.504       .  S
C2007      H2011   1.111       .  S
C2007      H2012   1.103       .  S
C2007      H2013   1.109       .  S
C2010      H2014   1.103       .  S
C2010      H2015   1.110       .  S
C2010      H2016   1.111       .  S
C2017      C2018   1.406       .  A
C2017      C2022   1.400       .  A
C2017      H2024   1.084       .  S
C2018      C2019   1.409       .  A
C2019      C2020   1.392       .  A
C2019      C2026   1.502       .  S
C2020      C2021   1.405       .  A
C2020      H2025   1.085       .  S
C2021      C2022   1.413       .  A
C2022      C2023   1.508       .  S
C2023      H2027   1.110       .  S
C2023      H2028   1.106       .  S
C2023      H2029   1.110       .  S
C2026      H2030   1.107       .  S
C2026      H2031   1.107       .  S
C2026      H2032   1.111       .  S
C2033      C2034   1.396       .  A
C2033      C2038   1.393       .  A
C2033      H2040   1.085       .  S
C2034      C2035   1.417       .  A
C2035      C2036   1.394       .  A
C2035      C2042   1.506       .  S
C2036      C2037   1.402       .  A
C2036      H2041   1.083       .  S
C2037      C2038   1.422       .  A
C2038      C2039   1.509       .  S
C2039      H2043   1.111       .  S
C2039      H2044   1.110       .  S
C2039      H2045   1.107       .  S
C2042      H2046   1.108       .  S
C2042      H2047   1.096       .  S
C2042      H2048   1.111       .  S
C2049      C2050   1.403       .  A
C2049      C2054   1.384       .  A
C2049      H2056   1.083       .  S
C2050      C2051   1.405       .  A
C2051      C2052   1.396       .  A
C2051      C2058   1.507   1_545  S
C2052      C2053   1.402       .  A
C2052      H2057   1.077       .  S
C2053      C2054   1.403       .  A
C2054      C2055   1.504       .  S
C2055      H2059   1.111       .  S
C2055      H2060   1.107       .  S
C2055      H2061   1.110       .  S
C2058      H2062   1.106       .  S
C2058      H2063   1.110       .  S
C2058      H2064   1.105       .  S
C2065      C2066   1.397       .  A
C2065      C2070   1.395       .  A
C2065      H2072   1.084       .  S
C2066      C2067   1.412       .  A
C2067      C2068   1.392       .  A
C2067      C2074   1.506       .  S
C2068      C2069   1.394       .  A
C2068      H2073   1.085       .  S
C2069      C2070   1.416       .  A
C2070      C2071   1.509       .  S
C2071      H2075   1.111       .  S
C2071      H2076   1.111       .  S
C2071      H2077   1.109       .  S
C2074      H2078   1.106       .  S
C2074      H2079   1.110       .  S
C2074      H2080   1.104       .  S
C2081      C2082   1.393       .  A
C2081      C2086   1.383       .  A
C2081      H2088   1.085       .  S
C2082      C2083   1.412       .  A
C2083      C2084   1.390       .  A
C2083      C2090   1.508       .  S
C2084      C2085   1.397       .  A
C2084      H2089   1.085       .  S
C2085      C2086   1.416       .  A
C2086      C2087   1.508       .  S
C2087      H2091   1.111       .  S
C2087      H2092   1.107       .  S
C2087      H2093   1.101       .  S
C2090      H2094   1.107       .  S
C2090      H2095   1.110       .  S
C2090      H2096   1.111       .  S
C2097      C2098   1.402       .  A
C2097      C2102   1.390       .  A
C2097      H2104   1.085       .  S
C2098      C2099   1.408       .  A
C2099      C2100   1.389       .  A
C2099      C2106   1.510       .  S
C2100      C2101   1.402       .  A
C2100      H2105   1.084       .  S
C2101      C2102   1.406       .  A
C2102      C2103   1.504       .  S
C2103      H2107   1.111   1_545  S
C2103      H2108   1.110       .  S
C2103      H2109   1.104       .  S
C2106      H2110   1.110       .  S
C2106      H2111   1.108       .  S
C2106      H2112   1.111       .  S
C2113      C2114   1.400       .  A
C2113      C2118   1.397       .  A
C2113      H2120   1.085       .  S
C2114      C2115   1.408       .  A
C2115      C2116   1.389       .  A
C2115      C2122   1.506       .  S
C2116      C2117   1.399       .  A
C2116      H2121   1.085       .  S
C2117      C2118   1.408       .  A
C2118      C2119   1.506       .  S
C2119      H2123   1.110       .  S
C2119      H2124   1.110   1_545  S
C2119      H2125   1.109       .  S
C2122      H2126   1.109       .  S
C2122      H2127   1.110       .  S
C2122      H2128   1.111       .  S
C2129      C2130   1.401       .  A
C2129      C2134   1.390       .  A
C2129      H2136   1.085       .  S
C2130      C2131   1.403       .  A
C2131      C2132   1.388       .  A
C2131      C2138   1.501       .  S
C2132      C2133   1.398       .  A
C2132      H2137   1.085       .  S
C2133      C2134   1.406       .  A
C2134      C2135   1.508       .  S
C2135      H2139   1.111       .  S
C2135      H2140   1.108   1_565  S
C2135      H2141   1.111   1_565  S
C2138      H2142   1.104       .  S
C2138      H2143   1.110       .  S
C2138      H2144   1.102       .  S
C2145      C2146   1.399       .  A
C2145      C2150   1.393       .  A
C2145      H2152   1.085       .  S
C2146      C2147   1.410       .  A
C2147      C2148   1.384       .  A
C2147      C2154   1.509       .  S
C2148      C2149   1.401       .  A
C2148      H2153   1.084       .  S
C2149      C2150   1.412       .  A
C2150      C2151   1.507       .  S
C2151      H2155   1.110       .  S
C2151      H2156   1.108       .  S
C2151      H2157   1.111       .  S
C2154      H2158   1.110       .  S
C2154      H2159   1.108       .  S
C2154      H2160   1.111       .  S
C2161      C2162   1.396       .  A
C2161      C2166   1.388       .  A
C2161      H2168   1.085       .  S
C2162      C2163   1.407       .  A
C2163      C2164   1.393       .  A
C2163      C2170   1.508       .  S
C2164      C2165   1.401       .  A
C2164      H2169   1.085       .  S
C2165      C2166   1.408       .  A
C2166      C2167   1.504       .  S
C2167      H2171   1.111       .  S
C2167      H2172   1.109       .  S
C2167      H2173   1.107       .  S
C2170      H2174   1.110       .  S
C2170      H2175   1.109       .  S
C2170      H2176   1.111       .  S
C2177      C2178   1.400       .  A
C2177      C2182   1.388       .  A
C2177      H2184   1.085       .  S
C2178      C2179   1.412       .  A
C2179      C2180   1.394       .  A
C2179      C2186   1.508       .  S
C2180      C2181   1.401       .  A
C2180      H2185   1.083       .  S
C2181      C2182   1.409       .  A
C2182      C2183   1.506       .  S
C2183      H2187   1.111   1_554  S
C2183      H2188   1.107       .  S
C2183      H2189   1.109       .  S
C2186      H2190   1.110       .  S
C2186      H2191   1.107       .  S
C2186      H2192   1.111       .  S
C2193      C2194   1.399       .  A
C2193      C2198   1.396       .  A
C2193      H2200   1.085       .  S
C2194      C2195   1.408       .  A
C2195      C2196   1.384       .  A
C2195      C2202   1.510       .  S
C2196      C2197   1.400       .  A
C2196      H2201   1.083       .  S
C2197      C2198   1.406       .  A
C2198      C2199   1.503       .  S
C2199      H2203   1.107       .  S
C2199      H2204   1.108       .  S
C2199      H2205   1.110       .  S
C2202      H2206   1.108       .  S
C2202      H2207   1.109       .  S
C2202      H2208   1.111       .  S
C2209      C2210   1.400       .  A
C2209      C2214   1.389       .  A
C2209      H2216   1.084       .  S
C2210      C2211   1.411       .  A
C2211      C2212   1.392       .  A
C2211      C2218   1.504       .  S
C2212      C2213   1.397       .  A
C2212      H2217   1.085       .  S
C2213      C2214   1.412       .  A
C2214      C2215   1.509       .  S
C2215      H2219   1.111       .  S
C2215      H2220   1.106   1_556  S
C2215      H2221   1.110       .  S
C2218      H2222   1.110       .  S
C2218      H2223   1.108       .  S
C2218      H2224   1.104       .  S
C2225      C2226   1.402       .  A
C2225      C2230   1.390       .  A
C2225      H2232   1.085       .  S
C2226      C2227   1.412       .  A
C2227      C2228   1.393       .  A
C2227      C2234   1.511       .  S
C2228      C2229   1.403       .  A
C2228      H2233   1.085       .  S
C2229      C2230   1.413       .  A
C2230      C2231   1.509       .  S
C2231      H2235   1.110       .  S
C2231      H2236   1.102       .  S
C2231      H2237   1.110       .  S
C2234      H2238   1.106   1_554  S
C2234      H2239   1.110       .  S
C2234      H2240   1.111       .  S
C2241      C2242   1.397       .  A
C2241      C2246   1.390       .  A
C2241      H2248   1.085       .  S
C2242      C2243   1.412       .  A
C2243      C2244   1.391       .  A
C2243      C2250   1.510       .  S
C2244      C2245   1.397       .  A
C2244      H2249   1.085       .  S
C2245      C2246   1.409       .  A
C2246      C2247   1.507       .  S
C2247      H2251   1.108       .  S
C2247      H2252   1.110       .  S
C2247      H2253   1.109       .  S
C2250      H2254   1.109       .  S
C2250      H2255   1.110       .  S
C2250      H2256   1.111       .  S
C2257      C2258   1.398       .  A
C2257      C2262   1.394       .  A
C2257      H2264   1.074       .  S
C2258      C2259   1.407       .  A
C2259      C2260   1.390       .  A
C2259      C2266   1.506       .  S
C2260      C2261   1.400       .  A
C2260      H2265   1.085       .  S
C2261      C2262   1.406       .  A
C2262      C2263   1.508       .  S
C2263      H2267   1.107       .  S
C2263      H2268   1.107       .  S
C2263      H2269   1.110       .  S
C2266      H2270   1.110       .  S
C2266      H2271   1.109       .  S
C2266      H2272   1.111       .  S
C2273      C2274   1.398       .  A
C2273      C2278   1.394       .  A
C2273      H2280   1.084       .  S
C2274      C2275   1.411       .  A
C2275      C2276   1.389       .  A
C2275      C2282   1.499       .  S
C2276      C2277   1.392       .  A
C2276      H2281   1.085       .  S
C2277      C2278   1.408       .  A
C2278      C2279   1.507       .  S
C2279      H2283   1.111       .  S
C2279      H2284   1.110       .  S
C2279      H2285   1.111       .  S
C2282      H2286   1.106       .  S
C2282      H2287   1.109       .  S
C2282      H2288   1.111       .  S
C2289      C2290   1.388       .  A
C2289      C2294   1.381       .  A
C2289      H2296   1.085       .  S
C2290      C2291   1.411       .  A
C2291      C2292   1.386       .  A
C2291      C2298   1.509       .  S
C2292      C2293   1.394       .  A
C2292      H2297   1.085       .  S
C2293      C2294   1.404       .  A
C2294      C2295   1.491       .  S
C2295      H2299   1.108       .  S
C2295      H2300   1.110       .  S
C2295      H2301   1.108       .  S
C2298      H2302   1.110       .  S
C2298      H2303   1.109       .  S
C2298      H2304   1.111       .  S
C2305      C2306   1.397       .  A
C2305      C2310   1.377       .  A
C2305      H2312   1.078       .  S
C2306      C2307   1.405       .  A
C2307      C2308   1.387       .  A
C2307      C2314   1.508       .  S
C2308      C2309   1.401       .  A
C2308      H2313   1.085       .  S
C2309      C2310   1.396       .  A
C2310      C2311   1.504       .  S
C2311      H2315   1.109       .  S
C2311      H2316   1.110       .  S
C2311      H2317   1.109       .  S
C2314      H2318   1.110       .  S
C2314      H2319   1.110       .  S
C2314      H2320   1.111       .  S
C2321      C2322   1.398       .  A
C2321      C2326   1.389       .  A
C2321      H2328   1.085       .  S
C2322      C2323   1.404       .  A
C2323      C2324   1.384       .  A
C2323      C2330   1.504       .  S
C2324      C2325   1.399       .  A
C2324      H2329   1.085       .  S
C2325      C2326   1.408       .  A
C2326      C2327   1.509       .  S
C2327      H2331   1.111       .  S
C2327      H2332   1.106       .  S
C2327      H2333   1.110       .  S
C2330      H2334   1.105       .  S
C2330      H2335   1.110       .  S
C2330      H2336   1.108       .  S
C2337      C2338   1.399       .  A
C2337      C2342   1.386       .  A
C2337      H2344   1.085       .  S
C2338      C2339   1.406       .  A
C2339      C2340   1.390       .  A
C2339      C2346   1.508       .  S
C2340      C2341   1.398       .  A
C2340      H2345   1.085       .  S
C2341      C2342   1.402       .  A
C2342      C2343   1.502       .  S
C2343      H2347   1.111       .  S
C2343      H2348   1.110       .  S
C2343      H2349   1.104       .  S
C2346      H2350   1.109       .  S
C2346      H2351   1.110       .  S
C2346      H2352   1.111       .  S
C2353      C2354   1.396       .  A
C2353      C2358   1.390       .  A
C2353      H2360   1.085       .  S
C2354      C2355   1.405       .  A
C2355      C2356   1.383       .  A
C2355      C2362   1.510       .  S
C2356      C2357   1.403       .  A
C2356      H2361   1.085       .  S
C2357      C2358   1.412       .  A
C2358      C2359   1.501       .  S
C2359      H2363   1.111       .  S
C2359      H2364   1.099       .  S
C2359      H2365   1.109       .  S
C2362      H2366   1.107       .  S
C2362      H2367   1.110       .  S
C2362      H2368   1.111       .  S
C2369      C2370   1.399       .  A
C2369      C2374   1.383       .  A
C2369      H2376   1.084       .  S
C2370      C2371   1.408       .  A
C2371      C2372   1.394       .  A
C2371      C2378   1.506       .  S
C2372      C2373   1.401       .  A
C2372      H2377   1.085       .  S
C2373      C2374   1.409       .  A
C2374      C2375   1.512       .  S
C2375      H2379   1.111       .  S
C2375      H2380   1.110       .  S
C2375      H2381   1.109       .  S
C2378      H2382   1.110       .  S
C2378      H2383   1.107       .  S
C2378      H2384   1.109       .  S
C2385      C2386   1.402       .  A
C2385      C2390   1.385       .  A
C2385      H2392   1.085       .  S
C2386      C2387   1.420       .  A
C2387      C2388   1.387       .  A
C2387      C2394   1.508       .  S
C2388      C2389   1.395       .  A
C2388      H2393   1.085       .  S
C2389      C2390   1.410       .  A
C2390      C2391   1.509       .  S
C2391      H2395   1.111       .  S
C2391      H2396   1.094       .  S
C2391      H2397   1.110       .  S
C2394      H2398   1.107       .  S
C2394      H2399   1.107       .  S
C2394      H2400   1.111       .  S
C2401      C2402   1.395       .  A
C2401      C2406   1.384       .  A
C2401      H2408   1.086       .  S
C2402      C2403   1.409       .  A
C2403      C2404   1.389       .  A
C2403      C2410   1.508       .  S
C2404      C2405   1.398       .  A
C2404      H2409   1.085       .  S
C2405      C2406   1.409       .  A
C2406      C2407   1.509       .  S
C2407      H2411   1.109       .  S
C2407      H2412   1.108       .  S
C2407      H2413   1.110       .  S
C2410      H2414   1.107       .  S
C2410      H2415   1.110       .  S
C2410      H2416   1.111       .  S
C2417      C2418   1.393       .  A
C2417      C2422   1.386       .  A
C2417      H2424   1.085       .  S
C2418      C2419   1.407       .  A
C2419      C2420   1.382       .  A
C2419      C2426   1.507       .  S
C2420      C2421   1.394       .  A
C2420      H2425   1.086       .  S
C2421      C2422   1.407       .  A
C2422      C2423   1.500       .  S
C2423      H2427   1.110       .  S
C2423      H2428   1.109       .  S
C2423      H2429   1.106       .  S
C2426      H2430   1.109       .  S
C2426      H2431   1.110       .  S
C2426      H2432   1.110       .  S
C2433      C2434   1.403       .  A
C2433      C2438   1.389       .  A
C2433      H2440   1.084       .  S
C2434      C2435   1.408       .  A
C2435      C2436   1.389       .  A
C2435      C2442   1.504   1_556  S
C2436      C2437   1.397       .  A
C2436      H2441   1.085       .  S
C2437      C2438   1.405       .  A
C2438      C2439   1.510       .  S
C2439      H2443   1.111       .  S
C2439      H2444   1.110       .  S
C2439      H2445   1.111       .  S
C2442      H2446   1.108       .  S
C2442      H2447   1.110       .  S
C2442      H2448   1.110       .  S
C2449      C2450   1.397       .  A
C2449      C2454   1.390       .  A
C2449      H2456   1.084       .  S
C2450      C2451   1.409       .  A
C2451      C2452   1.393       .  A
C2451      C2458   1.509       .  S
C2452      C2453   1.401       .  A
C2452      H2457   1.085       .  S
C2453      C2454   1.411       .  A
C2454      C2455   1.509       .  S
C2455      H2459   1.110       .  S
C2455      H2460   1.110       .  S
C2455      H2461   1.108       .  S
C2458      H2462   1.110       .  S
C2458      H2463   1.109       .  S
C2458      H2464   1.111       .  S
C2465      C2466   1.400       .  A
C2465      C2470   1.388       .  A
C2465      H2472   1.082       .  S
C2466      C2467   1.413       .  A
C2467      C2468   1.396       .  A
C2467      C2474   1.504       .  S
C2468      C2469   1.401       .  A
C2468      H2473   1.084       .  S
C2469      C2470   1.412       .  A
C2470      C2471   1.512       .  S
C2471      H2475   1.111       .  S
C2471      H2476   1.106       .  S
C2471      H2477   1.110       .  S
C2474      H2478   1.102       .  S
C2474      H2479   1.109       .  S
C2474      H2480   1.111   1_556  S
C2481      C2482   1.396       .  A
C2481      C2486   1.392       .  A
C2481      H2488   1.080       .  S
C2482      C2483   1.403       .  A
C2483      C2484   1.382       .  A
C2483      C2490   1.504       .  S
C2484      C2485   1.397       .  A
C2484      H2489   1.086       .  S
C2485      C2486   1.403       .  A
C2486      C2487   1.505       .  S
C2487      H2491   1.110       .  S
C2487      H2492   1.110       .  S
C2487      H2493   1.110       .  S
C2490      H2494   1.107       .  S
C2490      H2495   1.110       .  S
C2490      H2496   1.111       .  S
C2497      C2498   1.395       .  A
C2497      C2502   1.386       .  A
C2497      H2504   1.085       .  S
C2498      C2499   1.405       .  A
C2499      C2500   1.387       .  A
C2499      C2506   1.510       .  S
C2500      C2501   1.404       .  A
C2500      H2505   1.085       .  S
C2501      C2502   1.410       .  A
C2502      C2503   1.502       .  S
C2503      H2507   1.110       .  S
C2503      H2508   1.105       .  S
C2503      H2509   1.110       .  S
C2506      H2510   1.109       .  S
C2506      H2511   1.111       .  S
C2506      H2512   1.111       .  S
C2513      C2514   1.401       .  A
C2513      C2518   1.386       .  A
C2513      H2520   1.085       .  S
C2514      C2515   1.410       .  A
C2515      C2516   1.386       .  A
C2515      C2522   1.508       .  S
C2516      C2517   1.399       .  A
C2516      H2521   1.085       .  S
C2517      C2518   1.407       .  A
C2518      C2519   1.508       .  S
C2519      H2523   1.111       .  S
C2519      H2524   1.109       .  S
C2519      H2525   1.110       .  S
C2522      H2526   1.110       .  S
C2522      H2527   1.106       .  S
C2522      H2528   1.111       .  S
C2529      C2530   1.403       .  A
C2529      C2534   1.388       .  A
C2529      H2536   1.084       .  S
C2530      C2531   1.415       .  A
C2531      C2532   1.393       .  A
C2531      C2538   1.511       .  S
C2532      C2533   1.400       .  A
C2532      H2537   1.085       .  S
C2533      C2534   1.411       .  A
C2534      C2535   1.506       .  S
C2535      H2539   1.111       .  S
C2535      H2540   1.109       .  S
C2535      H2541   1.097       .  S
C2538      H2542   1.110       .  S
C2538      H2543   1.106       .  S
C2538      H2544   1.111       .  S
C2545      C2546   1.402       .  A
C2545      C2550   1.395       .  A
C2545      H2552   1.085       .  S
C2546      C2547   1.407       .  A
C2547      C2548   1.390       .  A
C2547      C2554   1.507   1_565  S
C2548      C2549   1.397       .  A
C2548      H2553   1.083       .  S
C2549      C2550   1.406       .  A
C2550      C2551   1.508       .  S
C2551      H2555   1.111       .  S
C2551      H2556   1.110       .  S
C2551      H2557   1.110       .  S
C2554      H2558   1.110       .  S
C2554      H2559   1.108       .  S
C2554      H2560   1.109       .  S
C2561      C2562   1.404       .  A
C2561      C2566   1.392       .  A
C2561      H2568   1.084       .  S
C2562      C2563   1.411       .  A
C2563      C2564   1.395       .  A
C2563      C2570   1.505       .  S
C2564      C2565   1.399       .  A
C2564      H2569   1.084       .  S
C2565      C2566   1.409       .  A
C2566      C2567   1.506       .  S
C2567      H2571   1.111       .  S
C2567      H2572   1.105       .  S
C2567      H2573   1.110       .  S
C2570      H2574   1.105       .  S
C2570      H2575   1.110       .  S
C2570      H2576   1.107       .  S
C2577      C2578   1.399       .  A
C2577      C2582   1.393       .  A
C2577      H2584   1.082       .  S
C2578      C2579   1.406       .  A
C2579      C2580   1.390       .  A
C2579      C2586   1.509       .  S
C2580      C2581   1.404       .  A
C2580      H2585   1.085       .  S
C2581      C2582   1.408       .  A
C2582      C2583   1.508   1_565  S
C2583      H2587   1.111       .  S
C2583      H2588   1.107       .  S
C2583      H2589   1.110       .  S
C2586      H2590   1.109       .  S
C2586      H2591   1.109       .  S
C2586      H2592   1.111       .  S
C2593      C2594   1.396       .  A
C2593      C2598   1.393       .  A
C2593      H2600   1.080       .  S
C2594      C2595   1.408       .  A
C2595      C2596   1.382       .  A
C2595      C2602   1.495       .  S
C2596      C2597   1.393       .  A
C2596      H2601   1.085       .  S
C2597      C2598   1.411       .  A
C2598      C2599   1.508       .  S
C2599      H2603   1.111       .  S
C2599      H2604   1.110       .  S
C2599      H2605   1.108       .  S
C2602      H2606   1.108       .  S
C2602      H2607   1.102       .  S
C2602      H2608   1.111       .  S
C2609      C2610   1.404       .  A
C2609      C2614   1.389       .  A
C2609      H2616   1.085       .  S
C2610      C2611   1.408       .  A
C2611      C2612   1.388       .  A
C2611      C2618   1.510       .  S
C2612      C2613   1.400       .  A
C2612      H2617   1.085       .  S
C2613      C2614   1.403       .  A
C2614      C2615   1.505       .  S
C2615      H2619   1.111       .  S
C2615      H2620   1.106       .  S
C2615      H2621   1.110       .  S
C2618      H2622   1.107   1_565  S
C2618      H2623   1.110   1_565  S
C2618      H2624   1.111   1_565  S
C2625      C2626   1.399       .  A
C2625      C2630   1.387       .  A
C2625      H2632   1.085       .  S
C2626      C2627   1.401       .  A
C2627      C2628   1.390       .  A
C2627      C2634   1.500   1_565  S
C2628      C2629   1.396       .  A
C2628      H2633   1.085       .  S
C2629      C2630   1.406       .  A
C2630      C2631   1.508       .  S
C2631      H2635   1.111       .  S
C2631      H2636   1.110       .  S
C2631      H2637   1.108       .  S
C2634      H2638   1.110       .  S
C2634      H2639   1.109       .  S
C2634      H2640   1.104       .  S
C2641      C2642   1.400       .  A
C2641      C2646   1.388       .  A
C2641      H2648   1.084       .  S
C2642      C2643   1.413       .  A
C2643      C2644   1.392       .  A
C2643      C2650   1.508   1_545  S
C2644      C2645   1.398       .  A
C2644      H2649   1.081       .  S
C2645      C2646   1.409       .  A
C2646      C2647   1.505       .  S
C2647      H2651   1.111       .  S
C2647      H2652   1.106       .  S
C2647      H2653   1.107       .  S
C2650      H2654   1.108       .  S
C2650      H2655   1.110   1_565  S
C2650      H2656   1.111       .  S
C2657      C2658   1.391       .  A
C2657      C2662   1.388       .  A
C2657      H2664   1.082       .  S
C2658      C2659   1.417       .  A
C2659      C2660   1.388       .  A
C2659      C2666   1.510       .  S
C2660      C2661   1.392       .  A
C2660      H2665   1.085       .  S
C2661      C2662   1.412       .  A
C2662      C2663   1.506       .  S
C2663      H2667   1.111       .  S
C2663      H2668   1.109       .  S
C2663      H2669   1.108       .  S
C2666      H2670   1.109       .  S
C2666      H2671   1.107       .  S
C2666      H2672   1.111       .  S
C2673      C2674   1.401       .  A
C2673      C2678   1.390       .  A
C2673      H2680   1.085       .  S
C2674      C2675   1.411       .  A
C2675      C2676   1.385       .  A
C2675      C2682   1.511       .  S
C2676      C2677   1.398       .  A
C2676      H2681   1.084       .  S
C2677      C2678   1.407       .  A
C2678      C2679   1.509       .  S
C2679      H2683   1.110       .  S
C2679      H2684   1.108       .  S
C2679      H2685   1.110       .  S
C2682      H2686   1.109       .  S
C2682      H2687   1.110       .  S
C2682      H2688   1.111       .  S
C2689      C2690   1.400       .  A
C2689      C2694   1.382       .  A
C2689      H2696   1.085       .  S
C2690      C2691   1.407       .  A
C2691      C2692   1.393       .  A
C2691      C2698   1.508       .  S
C2692      C2693   1.405       .  A
C2692      H2697   1.085       .  S
C2693      C2694   1.398       .  A
C2694      C2695   1.489       .  S
C2695      H2699   1.110       .  S
C2695      H2700   1.105       .  S
C2695      H2701   1.108       .  S
C2698      H2702   1.110       .  S
C2698      H2703   1.107       .  S
C2698      H2704   1.111       .  S
C2705      C2706   1.399       .  A
C2705      C2710   1.381       .  A
C2705      H2712   1.086       .  S
C2706      C2707   1.414       .  A
C2707      C2708   1.394       .  A
C2707      C2714   1.506       .  S
C2708      C2709   1.399       .  A
C2708      H2713   1.084       .  S
C2709      C2710   1.412       .  A
C2710      C2711   1.512       .  S
C2711      H2715   1.111       .  S
C2711      H2716   1.107       .  S
C2711      H2717   1.110       .  S
C2714      H2718   1.109       .  S
C2714      H2719   1.102       .  S
C2714      H2720   1.110       .  S
C2721      C2722   1.396       .  A
C2721      C2726   1.388       .  A
C2721      H2728   1.086   1_565  S
C2722      C2723   1.408       .  A
C2723      C2724   1.395       .  A
C2723      C2730   1.507   1_655  S
C2724      C2725   1.402       .  A
C2724      H2729   1.084       .  S
C2725      C2726   1.422       .  A
C2726      C2727   1.513       .  S
C2727      H2731   1.111       .  S
C2727      H2732   1.098       .  S
C2727      H2733   1.110   1_565  S
C2730      H2734   1.105       .  S
C2730      H2735   1.110       .  S
C2730      H2736   1.107       .  S
C2737      C2738   1.400       .  A
C2737      C2742   1.383       .  A
C2737      H2744   1.086       .  S
C2738      C2739   1.400       .  A
C2739      C2740   1.392       .  A
C2739      C2746   1.505   1_455  S
C2740      C2741   1.403       .  A
C2740      H2745   1.085       .  S
C2741      C2742   1.400       .  A
C2742      C2743   1.502       .  S
C2743      H2747   1.110   1_565  S
C2743      H2748   1.109       .  S
C2743      H2749   1.105       .  S
C2746      H2750   1.110       .  S
C2746      H2751   1.110       .  S
C2746      H2752   1.111   1_655  S
C2753      C2754   1.393       .  A
C2753      C2758   1.388       .  A
C2753      H2760   1.085       .  S
C2754      C2755   1.410       .  A
C2755      C2756   1.393       .  A
C2755      C2762   1.510   1_655  S
C2756      C2757   1.402       .  A
C2756      H2761   1.084       .  S
C2757      C2758   1.422       .  A
C2758      C2759   1.512       .  S
C2759      H2763   1.111       .  S
C2759      H2764   1.110       .  S
C2759      H2765   1.110       .  S
C2762      H2766   1.110       .  S
C2762      H2767   1.104       .  S
C2762      H2768   1.108       .  S
C2769      C2770   1.399       .  A
C2769      C2774   1.387       .  A
C2769      H2776   1.079       .  S
C2770      C2771   1.413       .  A
C2771      C2772   1.396       .  A
C2771      C2778   1.505   1_655  S
C2772      C2773   1.400       .  A
C2772      H2777   1.085       .  S
C2773      C2774   1.417       .  A
C2774      C2775   1.511       .  S
C2775      H2779   1.111       .  S
C2775      H2780   1.110       .  S
C2775      H2781   1.103       .  S
C2778      H2782   1.110       .  S
C2778      H2783   1.105       .  S
C2778      H2784   1.105       .  S
C2785      C2786   1.401       .  A
C2785      C2790   1.393       .  A
C2785      H2792   1.085   1_655  S
C2786      C2787   1.415       .  A
C2787      C2788   1.388       .  A
C2787      C2794   1.508       .  S
C2788      C2789   1.399       .  A
C2788      H2793   1.085       .  S
C2789      C2790   1.405       .  A
C2790      C2791   1.498       .  S
C2791      H2795   1.101   1_655  S
C2791      H2796   1.109       .  S
C2791      H2797   1.110       .  S
C2794      H2798   1.106       .  S
C2794      H2799   1.111       .  S
C2794      H2800   1.111       .  S
C2801      C2802   1.399       .  A
C2801      C2806   1.393       .  A
C2801      H2808   1.084       .  S
C2802      C2803   1.408       .  A
C2803      C2804   1.384       .  A
C2803      C2810   1.509       .  S
C2804      C2805   1.394       .  A
C2804      H2809   1.081       .  S
C2805      C2806   1.408       .  A
C2806      C2807   1.507       .  S
C2807      H2811   1.111       .  S
C2807      H2812   1.108       .  S
C2807      H2813   1.110       .  S
C2810      H2814   1.106       .  S
C2810      H2815   1.110   1_556  S
C2810      H2816   1.111       .  S
C2817      C2818   1.405       .  A
C2817      C2822   1.395       .  A
C2817      H2824   1.084   1_556  S
C2818      C2819   1.414       .  A
C2819      C2820   1.393       .  A
C2819      C2826   1.509       .  S
C2820      C2821   1.399       .  A
C2820      H2825   1.085       .  S
C2821      C2822   1.409       .  A
C2822      C2823   1.506       .  S
C2823      H2827   1.111   1_556  S
C2823      H2828   1.106       .  S
C2823      H2829   1.110       .  S
C2826      H2830   1.110       .  S
C2826      H2831   1.108   1_545  S
C2826      H2832   1.111       .  S
C2833      C2834   1.398       .  A
C2833      C2838   1.390       .  A
C2833      H2840   1.085       .  S
C2834      C2835   1.411       .  A
C2835      C2836   1.399       .  A
C2835      C2842   1.504   1_565  S
C2836      C2837   1.400       .  A
C2836      H2841   1.085       .  S
C2837      C2838   1.413       .  A
C2838      C2839   1.511       .  S
C2839      H2843   1.111       .  S
C2839      H2844   1.109       .  S
C2839      H2845   1.109       .  S
C2842      H2846   1.109       .  S
C2842      H2847   1.107       .  S
C2842      H2848   1.109       .  S
C2849      C2850   1.401       .  A
C2849      C2854   1.395       .  A
C2849      H2856   1.084   1_565  S
C2850      C2851   1.412       .  A
C2851      C2852   1.395       .  A
C2851      C2858   1.511       .  S
C2852      C2853   1.403       .  A
C2852      H2857   1.085       .  S
C2853      C2854   1.414       .  A
C2854      C2855   1.507       .  S
C2855      H2859   1.111   1_565  S
C2855      H2860   1.109       .  S
C2855      H2861   1.102       .  S
C2858      H2862   1.110       .  S
C2858      H2863   1.106       .  S
C2858      H2864   1.111       .  S
C2865      C2866   1.400       .  A
C2865      C2870   1.388       .  A
C2865      H2872   1.085       .  S
C2866      C2867   1.407       .  A
C2867      C2868   1.395       .  A
C2867      C2874   1.504       .  S
C2868      C2869   1.399       .  A
C2868      H2873   1.085       .  S
C2869      C2870   1.404       .  A
C2870      C2871   1.503       .  S
C2871      H2875   1.111       .  S
C2871      H2876   1.110       .  S
C2871      H2877   1.109       .  S
C2874      H2878   1.110       .  S
C2874      H2879   1.110       .  S
C2874      H2880   1.110       .  S
C2881      C2882   1.393       .  A
C2881      C2886   1.383       .  A
C2881      H2888   1.085       .  S
C2882      C2883   1.410       .  A
C2883      C2884   1.391       .  A
C2883      C2890   1.509       .  S
C2884      C2885   1.400       .  A
C2884      H2889   1.085       .  S
C2885      C2886   1.410       .  A
C2886      C2887   1.499       .  S
C2887      H2891   1.111       .  S
C2887      H2892   1.099       .  S
C2887      H2893   1.108       .  S
C2890      H2894   1.108       .  S
C2890      H2895   1.110       .  S
C2890      H2896   1.111       .  S
C2897      C2898   1.401       .  A
C2897      C2902   1.389       .  A
C2897      H2904   1.085       .  S
C2898      C2899   1.404       .  A
C2899      C2900   1.395       .  A
C2899      C2906   1.504       .  S
C2900      C2901   1.401       .  A
C2900      H2905   1.084       .  S
C2901      C2902   1.403       .  A
C2902      C2903   1.503       .  S
C2903      H2907   1.111       .  S
C2903      H2908   1.109       .  S
C2903      H2909   1.110       .  S
C2906      H2910   1.110       .  S
C2906      H2911   1.109       .  S
C2906      H2912   1.107       .  S
