geometry optimzed in LAMMPS
_audit_creation_date              2020-11-30 
_audit_creation_method            'lammps2cif' 
_symmetry_space_group_name_H-M    'P1' 
_symmetry_Int_Tables_number       1 
_symmetry_cell_setting            triclinic 
loop_ 
_symmetry_equiv_pos_as_xyz 
  x,y,z 
_cell_length_a                    54.451310505766116 
_cell_length_b                    54.713350975246314 
_cell_length_c                    30.328759810615914 
_cell_angle_alpha                 89.18604366529034 
_cell_angle_beta                  88.78717613625393 
_cell_angle_gamma                 121.7439544519287 
loop_ 
_atom_site_label 
_atom_site_type_symbol 
_atom_site_fract_x 
_atom_site_fract_y 
_atom_site_fract_z 
_atom_site_charge 
O1          O  0.75213221  0.29898443  0.30150849    -0.74490
O2          O  0.70192789  0.24709891  0.21530288    -0.74520
O3          O  0.70192670  0.24722072  0.30459965    -0.74570
O4          O  0.75190807  0.29870541  0.21227734    -0.74620
O5          O  0.77658092  0.27675531  0.21157324    -0.74550
O6          O  0.72660695  0.22534355  0.30435525    -0.74530
O7          O  0.72651559  0.22514241  0.21503913    -0.74510
O8          O  0.77689661  0.27720541  0.30098967    -0.74570
Ni9        Ni  0.72610892  0.27377786  0.25847961     1.25410
Ni10       Ni  0.75254155  0.25034219  0.25804838     1.25360
C11         C  0.77293954  0.29681940  0.31558367     0.87690
C12         C  0.70595439  0.22762062  0.20050581     0.87630
C13         C  0.70585485  0.22766131  0.31983601     0.87650
C14         C  0.77213302  0.29592886  0.19597463     0.87820
C15         C  0.47642478  0.92735620  0.50319125     0.03070
C16         C  0.48281876  0.91656870  0.46552303    -0.13080
C17         C  0.47903304  0.88916016  0.46652800     0.00570
C18         C  0.47205411  0.87365099  0.50658721    -0.11610
C19         C  0.46790903  0.88483650  0.04525318     0.03060
C20         C  0.46925164  0.91115333  0.04322372    -0.11030
H21         H  0.49078140  0.92915404  0.43519485     0.08660
H22         H  0.47012406  0.85289094  0.50770899     0.06190
H23         H  0.46432444  0.91863041  0.07302433     0.06030
C24         C  0.33370079  0.94059597  0.49965103     0.03070
C25         C  0.31959803  0.92578835  0.03988843    -0.13080
C26         C  0.29025627  0.90421363  0.04179253     0.00570
C27         C  0.27564371  0.89401280  0.50265737    -0.11610
C28         C  0.28916691  0.90710492  0.46212684     0.03060
C29         C  0.31722946  0.93157869  0.46113870    -0.11030
H30         H  0.33089037  0.93094956  0.07044890     0.08660
H31         H  0.25351771  0.87589259  0.50384503     0.06190
H32         H  0.32541196  0.94330067  0.43027356     0.06030
C33         C  0.45408771  0.14403653  0.49025188     0.03070
C34         C  0.45185387  0.15615038  0.45043793    -0.13080
C35         C  0.45324054  0.18245280  0.45013194     0.00570
C36         C  0.45610857  0.19637090  0.48971394    -0.11610
C37         C  0.45856671  0.18474100  0.02952274     0.03060
C38         C  0.45808230  0.15887919  0.02961234    -0.11030
H39         H  0.44962809  0.14546976  0.41963756     0.08660
H40         H  0.45661579  0.21645287  0.48945474     0.06190
H41         H  0.46158927  0.15084575  0.06014743     0.06030
C42         C  0.59871095  0.12253456  0.51662582     0.03070
C43         C  0.61368768  0.13386872  0.05575859    -0.13080
C44         C  0.64205640  0.15770362  0.05407344     0.00570
C45         C  0.65590036  0.16968874  0.51315977    -0.11610
C46         C  0.64143690  0.15851297  0.47400605     0.03060
C47         C  0.61270141  0.13548469  0.47584315    -0.11030
H48         H  0.60299731  0.12487962  0.08758749     0.08660
H49         H  0.67756750  0.18858676  0.51183386     0.06190
H50         H  0.60105909  0.12821150  0.44554120     0.06030
C51         C  0.45692515  0.02199228  0.51029869     0.00500
C52         C  0.47456760  0.05129570  0.50671071     0.00500
O53         O  0.24420561  0.54824020  0.28210044    -0.74490
O54         O  0.19739708  0.55425406  0.19486248    -0.74520
O55         O  0.19609944  0.55101814  0.28437169    -0.74570
O56         O  0.24578087  0.55155671  0.19258372    -0.74620
O57         O  0.21837341  0.50389653  0.19094349    -0.74550
O58         O  0.16915280  0.50333246  0.28306449    -0.74530
O59         O  0.17009072  0.50651672  0.19386081    -0.74510
O60         O  0.21713862  0.50064139  0.28001053    -0.74570
Ni61       Ni  0.22184499  0.55299132  0.23849786     1.25410
Ni62       Ni  0.19273569  0.50193946  0.23683605     1.25360
C63         C  0.23822156  0.52335649  0.29594473     0.87690
C64         C  0.17599203  0.53129570  0.17981999     0.87630
C65         C  0.17474528  0.52707424  0.29959942     0.87650
C66         C  0.24031336  0.52774900  0.17652195     0.87820
O67         O  0.14939144  0.79888020  0.21319643    -0.74490
O68         O  0.19876690  0.84701671  0.30204175    -0.74520
O69         O  0.20165787  0.84801545  0.21273472    -0.74570
O70         O  0.14663757  0.79723520  0.30249463    -0.74620
O71         O  0.16820108  0.77227273  0.30353597    -0.74550
O72         O  0.22282016  0.82264778  0.21448986    -0.74530
O73         O  0.22038527  0.82206482  0.30392836    -0.74510
O74         O  0.17040758  0.77343927  0.21398658    -0.74570
Ni75       Ni  0.17336431  0.82366809  0.25759831     1.25410
Ni76       Ni  0.19622782  0.79670941  0.25908829     1.25360
C77         C  0.15162146  0.77837928  0.19840555     0.87690
C78         C  0.21764036  0.84257120  0.31800760     0.87630
C79         C  0.22125986  0.84349773  0.19847583     0.87650
C80         C  0.14832736  0.77619715  0.31789423     0.87820
C81         C  0.06623853  0.51831822  0.49185711     0.03070
C82         C  0.08102997  0.52378970  0.03173718    -0.13080
C83         C  0.10748730  0.52518874  0.03315168     0.00570
C84         C  0.12008354  0.52293015  0.49399740    -0.11610
C85         C  0.10596468  0.51791004  0.45411033     0.03060
C86         C  0.07848423  0.51413895  0.45366495    -0.11030
H87         H  0.07237293  0.52760551  0.06152522     0.08660
H88         H  0.14111013  0.52522973  0.49446218     0.06190
H89         H  0.06731610  0.50910762  0.42312950     0.06030
C90         C  0.04657289  0.66888772  0.51823004     0.03070
C91         C  0.05646105  0.68262025  0.47633941    -0.13080
C92         C  0.07951940  0.71136510  0.47241419     0.00570
C93         C  0.09299555  0.72602255  0.51055432    -0.11610
C94         C  0.08363562  0.71235312  0.05213654     0.03060
C95         C  0.06024895  0.68397453  0.05600184    -0.11030
H96         H  0.04722407  0.67052850  0.44687384     0.08660
H97         H  0.11173394  0.74770936  0.50774978     0.06190
H98         H  0.05404971  0.67304572  0.08808114     0.06030
C99         C  0.87537304  0.40528093  0.50271468     0.03070
C100        C  0.86311366  0.39246203  0.46245127    -0.13080
C101        C  0.84093444  0.36334859  0.46171300     0.00570
C102        C  0.82961367  0.34771271  0.50154119    -0.11610
C103        C  0.84073008  0.36052942  0.04172080     0.03060
C104        C  0.86407418  0.38890695  0.04221457    -0.11030
H105        H  0.86992637  0.40518355  0.43200316     0.08660
H106        H  0.81119763  0.32582719  0.50139707     0.06190
H107        H  0.87229058  0.39873215  0.07360756     0.06030
C108        C  0.85257337  0.54197501  0.49115218     0.03070
C109        C  0.83977816  0.53936941  0.03324122    -0.13080
C110        C  0.81254727  0.53646943  0.03720710     0.00570
C111        C  0.79877158  0.53704542  0.49901640    -0.11610
C112        C  0.81164694  0.54022568  0.45719759     0.03900
C113        C  0.83828795  0.54222904  0.45337152    -0.11030
H114        H  0.85057632  0.53888602  0.06254593     0.08660
H115        H  0.77801144  0.53529082  0.50185763     0.06190
H116        H  0.84808156  0.54428911  0.42094559     0.06030
C117        C  0.97839594  0.54510320  0.51217357     0.00500
C118        C  0.94974844  0.52955358  0.49922013     0.00500
O119        O  0.42911293  0.29114074  0.28124454    -0.74490
O120        O  0.43234095  0.24336454  0.19348942    -0.74520
O121        O  0.43149694  0.24301804  0.28289507    -0.74570
O122        O  0.43025615  0.29183046  0.19188507    -0.74620
O123        O  0.47828778  0.31844682  0.19054574    -0.74550
O124        O  0.47941929  0.26971740  0.28110820    -0.74530
O125        O  0.48033480  0.26994421  0.19180195    -0.74510
O126        O  0.47706719  0.31781334  0.28003351    -0.74570
Ni127      Ni  0.42910222  0.26639209  0.23736032     1.25410
Ni128      Ni  0.48047649  0.29493466  0.23578379     1.25360
C129        C  0.45254576  0.31227711  0.29561064     0.87690
C130        C  0.45675296  0.24851524  0.17821061     0.87630
C131        C  0.45578368  0.24849901  0.29750848     0.87650
C132        C  0.45408566  0.31330882  0.17625895     0.87820
O133        O  0.72611103  0.51403321  0.20589632    -0.74490
O134        O  0.67675104  0.51674656  0.29558708    -0.74520
O135        O  0.67717717  0.51587834  0.20596996    -0.74570
O136        O  0.72561931  0.51517434  0.29544424    -0.74620
O137        O  0.75229080  0.56303281  0.29113625    -0.74550
O138        O  0.70366600  0.56363518  0.20287211    -0.74530
O139        O  0.70352641  0.56453687  0.29206692    -0.74510
O140        O  0.75245189  0.56181935  0.20213629    -0.74570
Ni141      Ni  0.70044183  0.51372592  0.25077917     1.25410
Ni142      Ni  0.72887851  0.56491374  0.24687721     1.25360
C143        C  0.74761518  0.53750254  0.18934931     0.87690
C144        C  0.68242097  0.54117028  0.30940106     0.87630
C145        C  0.68234931  0.53993646  0.18965473     0.87650
C146        C  0.74703953  0.53909085  0.30793736     0.87820
O147        O  0.49542178  0.77677174  0.29747359    -0.74490
O148        O  0.49182388  0.82582926  0.20922988    -0.74520
O149        O  0.49600466  0.82656137  0.29807977    -0.74570
O150        O  0.49207658  0.77655872  0.20850196    -0.74620
O151        O  0.44408108  0.75130095  0.21488953    -0.74550
O152        O  0.44795789  0.80159095  0.30566504    -0.74530
O153        O  0.44377150  0.80064215  0.21660952    -0.74510
O154        O  0.44743310  0.75172227  0.30401996    -0.74570
Ni155      Ni  0.49551576  0.80230961  0.25307149     1.25410
Ni156      Ni  0.44408891  0.77540948  0.26057113     1.25360
C157        C  0.47186824  0.75601350  0.31533214     0.87690
C158        C  0.46712740  0.82132780  0.19852640     0.87630
C159        C  0.47277935  0.82251909  0.31658264     0.87650
C160        C  0.46760616  0.75582242  0.19647972     0.87820
C161        C  0.33841047  0.51694994  0.48354260     0.03070
C162        C  0.32398034  0.51496017  0.44430945    -0.13080
C163        C  0.30114832  0.51980324  0.44444512     0.00570
C164        C  0.29071115  0.52400429  0.48417155    -0.11610
C165        C  0.30378589  0.52481012  0.02365894     0.03060
C166        C  0.32878549  0.52350512  0.02280586    -0.11030
H167        H  0.33035522  0.50991814  0.41341298     0.08660
H168        H  0.27196315  0.52607305  0.48449039     0.06190
H169        H  0.34002886  0.52683261  0.05317894     0.06030
C170        C  0.47331634  0.65431639  0.51128430     0.03070
C171        C  0.47537840  0.66928625  0.04979010    -0.13080
C172        C  0.47402447  0.69416520  0.04784176     0.00570
C173        C  0.47341052  0.70583987  0.50692110    -0.11610
C174        C  0.47369831  0.69269473  0.46790506     0.03060
C175        C  0.47234072  0.66638833  0.47020303    -0.11030
H176        H  0.47778877  0.66173940  0.08142730     0.08660
H177        H  0.47312511  0.72550335  0.50538414     0.06190
H178        H  0.47081706  0.65561075  0.43978802     0.06030
C179        C  0.44652909  0.41225579  0.48224679     0.03070
C180        C  0.45100217  0.40197765  0.02251452    -0.13080
C181        C  0.45166458  0.37669879  0.02429920     0.00570
C182        C  0.44891041  0.36210064  0.48548524    -0.11610
C183        C  0.44452017  0.37196920  0.44548173     0.03060
C184        C  0.44199991  0.39613011  0.44425473    -0.11030
H185        H  0.45453186  0.41381173  0.05244592     0.08660
H186        H  0.45039652  0.34309869  0.48634263     0.06190
H187        H  0.43669873  0.40219858  0.41356028     0.06030
C188        C  0.58232407  0.54822934  0.50388254     0.03070
C189        C  0.59170632  0.54167027  0.46426038    -0.13080
C190        C  0.61622078  0.53941144  0.46295581     0.00570
C191        C  0.62941882  0.54018354  0.50233851    -0.11610
C192        C  0.61959388  0.54493280  0.04220317     0.03060
C193        C  0.59689786  0.54994959  0.04283214    -0.11030
H194        H  0.58064946  0.53909626  0.43399344     0.08660
H195        H  0.64798622  0.53781403  0.50181325     0.06190
H196        H  0.59105189  0.55535840  0.07385128     0.06030
C197        C  0.45261069  0.53981102  0.49362199     0.00500
C198        C  0.46846152  0.52708326  0.49798341     0.00500
C199        C  0.51898826  0.55327904  0.96602339    -0.20370
C200        C  0.50055316  0.54372334  0.50378131    -0.06930
C201        C  0.51220294  0.54216538  0.54408170     0.13940
C202        C  0.53877099  0.54368480  0.54378152    -0.20420
C203        C  0.55651944  0.55153567  0.50509534    -0.06940
C204        C  0.54763082  0.56027750  0.96753282     0.13930
C205        C  0.56754201  0.57777661  0.92908977    -0.23770
H206        H  0.51108850  0.55400178  0.93420370     0.15210
H207        H  0.54502505  0.53823882  0.57418922     0.15240
C208        C  0.49729412  0.53911567  0.58780558    -0.23720
H209        H  0.56592968  0.59694160  0.92293489     0.05450
H210        H  0.56110139  0.56481007  0.39893369     0.08680
H211        H  0.59054735  0.58611701  0.93561933     0.08680
H212        H  0.48958774  0.51764354  0.60316837     0.08660
H213        H  0.47929990  0.54284765  0.08448415     0.08660
H214        H  0.51278780  0.55583741  0.61005114     0.05440
C215        C  0.43485102  0.44605552  0.01669258    -0.20370
C216        C  0.44721602  0.43998369  0.48067760    -0.06930
C217        C  0.46280893  0.46187682  0.44759464     0.13940
C218        C  0.46536604  0.48863942  0.45197290    -0.20420
C219        C  0.45602423  0.49570433  0.49054221    -0.06940
C220        C  0.44071086  0.47386157  0.02365212     0.13930
C221        C  0.43218756  0.47890398  0.06839023    -0.23770
H222        H  0.42255724  0.42950466  0.04196104     0.15210
H223        H  0.47696082  0.50505847  0.42638299     0.15240
C224        C  0.47941426  0.45883680  0.40977391    -0.23720
H225        H  0.44145371  0.47184531  0.09428740     0.05450
H226        H  0.40828405  0.46625404  0.57280417     0.08680
H227        H  0.44030918  0.50165190  0.07359133     0.08680
H228        H  0.46452282  0.44483340  0.38442508     0.08660
H229        H  0.49257471  0.45024897  0.92202403     0.08660
H230        H  0.49458453  0.47988619  0.39291570     0.05440
C231        C  0.48662236  0.62123697  0.47830886    -0.20370
C232        C  0.47249564  0.62643654  0.51284781    -0.06930
C233        C  0.45566002  0.60379025  0.04429737     0.13940
C234        C  0.45361228  0.57725280  0.03975801    -0.20420
C235        C  0.46456716  0.57103193  0.50211313    -0.06940
C236        C  0.48104515  0.59361122  0.47052139     0.13930
C237        C  0.49094530  0.58956517  0.42622303    -0.23770
H238        H  0.50014375  0.63836165  0.45446223     0.15210
H239        H  0.44114822  0.56032532  0.06431532     0.15240
C240        C  0.43725535  0.60571225  0.08035915    -0.23720
H241        H  0.48315653  0.59791677  0.39989286     0.05450
H242        H  0.48215582  0.56689555  0.41958513     0.08680
H243        H  0.51491578  0.60153899  0.42397568     0.08680
H244        H  0.42504443  0.61508222  0.06702834     0.08660
H245        H  0.45076717  0.61843666  0.10787210     0.08660
H246        H  0.42104415  0.58414660  0.09473528     0.05440
C247        C  0.38290713  0.52300209  0.94516159    -0.20370
C248        C  0.36444696  0.51415192  0.48308418    -0.06930
C249        C  0.37283328  0.50501240  0.52079536     0.13940
C250        C  0.40148985  0.51218325  0.52327659    -0.20420
C251        C  0.42067665  0.52297854  0.48642851    -0.06940
C252        C  0.40974088  0.52515773  0.94578013     0.13930
C253        C  0.42571340  0.52955121  0.90262178    -0.23770
H254        H  0.37698475  0.52879794  0.91472541     0.15210
H255        H  0.40880881  0.51067849  0.55518792     0.15240
C256        C  0.35240436  0.48715963  0.55857511    -0.23720
H257        H  0.41088955  0.51344740  0.87903554     0.05450
H258        H  0.44372052  0.52587420  0.40628910     0.08680
H259        H  0.43361277  0.55140020  0.88861862     0.08680
H260        H  0.32950854  0.47894018  0.55140432     0.08660
H261        H  0.35844493  0.49987454  0.08902767     0.08660
H262        H  0.35392593  0.46793404  0.56463593     0.05440
C263        C  0.49777729  0.74941828  0.37633590    -0.20370
C264        C  0.47303214  0.73756956  0.35081815    -0.06930
C265        C  0.44991527  0.70900332  0.36096164     0.13940
C266        C  0.45145591  0.69411706  0.39798043    -0.20420
C267        C  0.47537828  0.70693367  0.42504347    -0.06940
C268        C  0.49932153  0.73446950  0.41302360     0.13930
C269        C  0.52685716  0.74878104  0.43821685    -0.23770
H270        H  0.51587976  0.77093350  0.36845818     0.15210
H271        H  0.43335943  0.67280977  0.40697906     0.15240
C272        C  0.42359805  0.69385184  0.33312485    -0.23720
H273        H  0.54538335  0.75428066  0.41537542     0.05450
H274        H  0.52685814  0.73491805  0.46521369     0.08680
H275        H  0.53025272  0.76884874  0.45257271     0.08680
H276        H  0.43029411  0.69423998  0.29814797     0.08660
H277        H  0.41089494  0.70433079  0.33581523     0.08660
H278        H  0.40905946  0.67099876  0.34397074     0.05440
C279        C  0.44635189  0.70752151  0.09683197    -0.20370
C280        C  0.47182470  0.70761305  0.08843583    -0.06930
C281        C  0.49512982  0.72219779  0.11671986     0.13940
C282        C  0.49251145  0.73671282  0.15251578    -0.20420
C283        C  0.46728761  0.73738586  0.16058322    -0.06940
C284        C  0.44370788  0.72222004  0.13242016     0.13930
C285        C  0.41617708  0.72228781  0.13814360    -0.23770
H286        H  0.42862562  0.69634553  0.07465507     0.15210
H287        H  0.51064368  0.74813381  0.17387804     0.15240
C288        C  0.52323492  0.72364508  0.10808215    -0.23720
H289        H  0.40071701  0.71024853  0.11193363     0.05450
H290        H  0.42106851  0.74471932  0.13651931     0.08680
H291        H  0.40530920  0.71183934  0.17029304     0.08680
H292        H  0.53206913  0.73313845  0.07460903     0.08660
H293        H  0.51976046  0.70179585  0.11046912     0.08660
H294        H  0.53965925  0.73710962  0.13233670     0.05440
C295        C  0.67553584  0.56672642  0.12915865    -0.20370
C296        C  0.66426013  0.54091905  0.15426034    -0.06930
C297        C  0.63653451  0.51719588  0.14438596     0.13940
C298        C  0.62174934  0.51967871  0.10884718    -0.20420
C299        C  0.63385615  0.54503310  0.08300147    -0.06940
C300        C  0.66073859  0.56897971  0.09363564     0.13930
C301        C  0.67392996  0.59679719  0.06707585    -0.23770
H302        H  0.69648845  0.58514669  0.13646671     0.15210
H303        H  0.60099565  0.50142392  0.10019837     0.15240
C304        C  0.62215076  0.48921629  0.17074593    -0.23720
H305        H  0.69491043  0.61360421  0.08020116     0.05450
H306        H  0.65904163  0.60490929  0.06800852     0.08680
H307        H  0.67779322  0.59328765  0.03230343     0.08680
H308        H  0.62037602  0.49323919  0.20611612     0.08660
H309        H  0.63473169  0.47866960  0.16678690     0.08660
H310        H  0.59998633  0.47390513  0.15959885     0.05440
C311        C  0.63591609  0.51927450  0.35342888    -0.20370
C312        C  0.66472234  0.54223736  0.34660795    -0.06930
C313        C  0.67650063  0.56475525  0.37714719     0.13940
C314        C  0.65940582  0.56349703  0.41332870    -0.20420
C315        C  0.63100170  0.54028436  0.42070270    -0.06940
C316        C  0.61891299  0.51800410  0.39011148     0.13930
C317        C  0.58869566  0.49233628  0.39699281    -0.23770
H318        H  0.62677238  0.50196795  0.33028785     0.15210
H319        H  0.66857616  0.58049463  0.43703479     0.15240
C320        C  0.70748630  0.58953011  0.37360059    -0.23720
H321        H  0.58324699  0.47626034  0.37108764     0.05450
H322        H  0.57280265  0.49913854  0.39575515     0.08680
H323        H  0.58658629  0.48169611  0.42950002     0.08680
H324        H  0.71106673  0.60272264  0.34326693     0.08660
H325        H  0.72223786  0.58125014  0.37304704     0.08660
H326        H  0.71323749  0.60397766  0.40198320     0.05440
C327        C  0.47160642  0.37015581  0.38086349    -0.20370
C328        C  0.44524906  0.35827573  0.40446148    -0.06930
C329        C  0.42106785  0.33253864  0.39091430     0.13940
C330        C  0.42402164  0.31861140  0.35458060    -0.20420
C331        C  0.45078563  0.32963720  0.33164714    -0.06940
C332        C  0.47484901  0.35622887  0.34471657     0.13930
C333        C  0.50407297  0.37027854  0.32137370    -0.23770
H334        H  0.49001877  0.39006264  0.39178292     0.15210
H335        H  0.40535693  0.29851265  0.34493517     0.15240
C336        C  0.39228338  0.31969359  0.41515904    -0.23720
H337        H  0.51959676  0.39156545  0.33499857     0.05450
H338        H  0.50202033  0.37374627  0.28581879     0.08680
H339        H  0.51343493  0.35664675  0.32543344     0.08680
H340        H  0.38507702  0.33527477  0.41442328     0.08660
H341        H  0.39423194  0.31458213  0.44998114     0.08660
H342        H  0.37544002  0.29956869  0.40003545     0.05440
C343        C  0.47801254  0.34563619  0.11047796    -0.20370
C344        C  0.45405009  0.33204640  0.14020564    -0.06930
C345        C  0.43093607  0.33658353  0.13432964     0.13940
C346        C  0.43169927  0.35296454  0.09755506    -0.20420
C347        C  0.45482775  0.36485029  0.06652049    -0.06940
C348        C  0.47873971  0.36199659  0.07391017     0.13930
C349        C  0.50533484  0.37587539  0.04383140    -0.23770
H350        H  0.49613956  0.34291379  0.11505030     0.15210
H351        H  0.41354395  0.35548402  0.09190833     0.15240
C352        C  0.40549818  0.32453365  0.16656720    -0.23720
H353        H  0.52463890  0.38992666  0.06329559     0.05450
H354        H  0.50457531  0.38944020  0.01705601     0.08680
H355        H  0.50794984  0.35898678  0.02869382     0.08680
H356        H  0.41319471  0.33158588  0.20035017     0.08660
H357        H  0.39278492  0.30071244  0.16590952     0.08660
H358        H  0.39069070  0.33202663  0.15833868     0.05440
C359        C  0.78807747  0.51944407  0.38686151    -0.20370
C360        C  0.79700575  0.54131597  0.41745314    -0.06930
C361        C  0.79117782  0.56331030  0.41012686     0.13940
C362        C  0.77511636  0.56191091  0.37379883    -0.20420
C363        C  0.76535092  0.53959603  0.34372193    -0.06940
C364        C  0.77283397  0.51857034  0.34954461     0.13930
C365        C  0.76632378  0.49564028  0.31668646    -0.23770
H366        H  0.79315091  0.50294394  0.39207193     0.15210
H367        H  0.76996947  0.57840246  0.36921335     0.15240
C368        C  0.80193844  0.58884828  0.43934702    -0.23720
H369        H  0.75068883  0.47414523  0.33179715     0.05450
H370        H  0.78658058  0.49642575  0.30744620     0.08680
H371        H  0.75769064  0.49837330  0.28557336     0.08680
H372        H  0.81602750  0.58937529  0.46559647     0.08660
H373        H  0.78324657  0.58867301  0.45507872     0.08660
H374        H  0.81483315  0.60896896  0.41904199     0.05440
C375        C  0.81093598  0.55735221  0.10852712    -0.20370
C376        C  0.79823091  0.53383459  0.08073078    -0.06930
C377        C  0.77019372  0.51024398  0.09174295     0.13940
C378        C  0.75469436  0.51183805  0.12797344    -0.20420
C379        C  0.76645075  0.53631140  0.15404077    -0.06940
C380        C  0.79550233  0.55894576  0.14507074     0.13930
C381        C  0.81057978  0.58487263  0.17357801    -0.23770
H382        H  0.83254418  0.57526591  0.10022567     0.15210
H383        H  0.73283919  0.49400775  0.13502461     0.15240
C384        C  0.75589510  0.48311887  0.06574488    -0.23720
H385        H  0.83375081  0.59910052  0.16355296     0.05450
H386        H  0.80945977  0.57788199  0.20850944     0.08680
H387        H  0.80044877  0.59786296  0.17064011     0.08680
H388        H  0.77025291  0.48312969  0.03927315     0.08660
H389        H  0.73621250  0.48031034  0.05060111     0.08660
H390        H  0.74957615  0.46436965  0.08819564     0.05440
C391        C  0.87988586  0.52051900  0.46340301    -0.20370
C392        C  0.88005668  0.54272077  0.48582094    -0.06930
C393        C  0.90692830  0.56679518  0.99659016     0.13940
C394        C  0.93207396  0.56553675  0.99176833    -0.20420
C395        C  0.93051565  0.53991726  0.48050916    -0.06940
C396        C  0.90527697  0.52020587  0.45753739     0.13930
C397        C  0.90510480  0.50021114  0.42383004    -0.23770
H398        H  0.86009312  0.50384708  0.44916126     0.15210
H399        H  0.95243821  0.58520780  0.99259354     0.15240
C400        C  0.90915911  0.59404519  0.01120327    -0.23720
H401        H  0.89662077  0.50316498  0.39252460     0.05450
H402        H  0.89095903  0.47752177  0.93564933     0.08680
H403        H  0.92723624  0.50519360  0.41572569     0.08680
H404        H  0.89670242  0.58995331  0.04273534     0.08660
H405        H  0.90038110  0.60185213  0.48564624     0.08660
H406        H  0.93188455  0.61129061  0.01632121     0.05440
C407        C  0.89183413  0.45291186  0.03451665    -0.20370
C408        C  0.89710221  0.43660648  0.50468106    -0.06930
C409        C  0.92260524  0.45056526  0.47772851     0.13940
C410        C  0.94012542  0.48065826  0.47748177    -0.20420
C411        C  0.93382239  0.49722139  0.50532612    -0.06940
C412        C  0.91016331  0.48284006  0.03591115     0.13930
C413        C  0.90384008  0.49898018  0.06972031    -0.23770
H414        H  0.87272499  0.44225797  0.05613191     0.15210
H415        H  0.95792753  0.49128118  0.45357365     0.15240
C416        C  0.93205048  0.43404407  0.45011870    -0.23720
H417        H  0.88551656  0.48412596  0.09246292     0.05450
H418        H  0.89800976  0.51340693  0.55352694     0.08680
H419        H  0.92305373  0.51195593  0.08987743     0.08680
H420        H  0.91723666  0.42339330  0.42281611     0.08660
H421        H  0.93274847  0.41767409  0.97118650     0.08660
H422        H  0.95399738  0.44840155  0.43499830     0.05440
C423        C  0.98555662  0.59146063  0.04595430    -0.20370
C424        C  0.99691253  0.57672104  0.52460296    -0.06930
C425        C  0.02763387  0.59296397  0.51812590     0.13940
C426        C  0.04161447  0.62244598  0.51003523    -0.20420
C427        C  0.02821915  0.63724745  0.52171920    -0.06940
C428        C  0.00068487  0.62191932  0.04345883     0.13930
C429        C  0.98708609  0.63745763  0.06239205    -0.23770
H430        H  0.96422269  0.57935388  0.06165546     0.15210
H431        H  0.06452057  0.63450092  0.50106704     0.15240
C432        C  0.04702038  0.58330009  0.53583400    -0.23720
H433        H  0.96535290  0.62221341  0.07747279     0.05450
H434        H  0.98483651  0.65028348  0.53588355     0.08680
H435        H  0.00075565  0.65203138  0.08840029     0.08680
H436        H  0.05860708  0.57983457  0.50862439     0.08660
H437        H  0.03522185  0.56435178  0.05844347     0.08660
H438        H  0.06376705  0.60020275  0.55660270     0.05440
C439        C  0.01935554  0.50668430  0.02680448    -0.20370
C440        C  0.03906826  0.51879153  0.49044007    -0.06930
C441        C  0.03441268  0.53463856  0.45751383     0.13940
C442        C  0.01168143  0.53932154  0.46381344    -0.20420
C443        C  0.99540175  0.53130760  0.50355104    -0.06940
C444        C  0.99825177  0.51358060  0.03466411     0.13930
C445        C  0.98132371  0.50377726  0.07788541    -0.23770
H446        H  0.02207375  0.49381013  0.05143532     0.15210
H447        H  0.00865665  0.55230353  0.43976789     0.15240
C448        C  0.05512333  0.55033413  0.41880867    -0.23720
H449        H  0.99644172  0.51150482  0.10554387     0.05450
H450        H  0.96800564  0.47991776  0.57971925     0.08680
H451        H  0.96687712  0.51214673  0.08231862     0.08680
H452        H  0.05267735  0.53501852  0.39326051     0.08660
H453        H  0.07770030  0.56284109  0.92993810     0.08660
H454        H  0.05080566  0.56593985  0.40245432     0.05440
C455        C  0.09469542  0.74771636  0.10952246    -0.20370
C456        C  0.09972932  0.72745448  0.09122904    -0.06930
C457        C  0.12096934  0.72310894  0.10864473     0.13940
C458        C  0.13710973  0.73961738  0.14401939    -0.20420
C459        C  0.13263618  0.76055889  0.16234018    -0.06940
C460        C  0.11067902  0.76432575  0.14483233     0.13930
C461        C  0.10364028  0.78570762  0.16232218    -0.23770
H462        H  0.07830177  0.75077716  0.09553058     0.15210
H463        H  0.15364435  0.73638571  0.15684723     0.15240
C464        C  0.12701893  0.70153002  0.08918517    -0.23720
H465        H  0.08539927  0.78480191  0.14505532     0.05450
H466        H  0.12257961  0.80790725  0.15730369     0.08680
H467        H  0.09718779  0.78098527  0.19786394     0.08680
H468        H  0.13361401  0.70709619  0.05379355     0.08660
H469        H  0.10730136  0.67968027  0.09216132     0.08660
H470        H  0.14461885  0.70107812  0.10628566     0.05440
C471        C  0.11155913  0.76612775  0.37725215    -0.20370
C472        C  0.12766952  0.75687862  0.35381215    -0.06930
C473        C  0.12426028  0.73006160  0.36646000     0.13940
C474        C  0.10675967  0.71471228  0.40374344    -0.20420
C475        C  0.09260420  0.72526835  0.42879249    -0.06940
C476        C  0.09415090  0.75069858  0.41448192     0.13930
C477        C  0.07735228  0.76154506  0.43841643    -0.23770
H478        H  0.11329883  0.78611083  0.36742649     0.15210
H479        H  0.10519142  0.69497539  0.41472333     0.15240
C480        C  0.13890438  0.71725807  0.34149636    -0.23720
H481        H  0.08005897  0.78107008  0.42177612     0.05450
H482        H  0.08478680  0.76715742  0.47260092     0.08680
H483        H  0.05399868  0.74465877  0.43941398     0.08680
H484        H  0.16266447  0.73076492  0.34472040     0.08660
H485        H  0.13333996  0.71540029  0.30618704     0.08660
H486        H  0.13196113  0.69538175  0.35444959     0.05440
C487        C  0.30217237  0.54862895  0.09203484    -0.20370
C488        C  0.28939712  0.52436149  0.06577033    -0.06930
C489        C  0.26184072  0.50057499  0.07821372     0.13940
C490        C  0.24681824  0.50249333  0.11456285    -0.20420
C491        C  0.25869418  0.52729441  0.13986527    -0.06940
C492        C  0.28725956  0.55042260  0.12914571     0.13930
C493        C  0.30239511  0.57691941  0.15644556    -0.23770
H494        H  0.32354435  0.56657296  0.08264321     0.15210
H495        H  0.22531848  0.48434169  0.12271054     0.15240
C496        C  0.24757557  0.47267534  0.05404027    -0.23720
H497        H  0.32512408  0.59172912  0.14465587     0.05450
H498        H  0.30275059  0.57069635  0.19133548     0.08680
H499        H  0.29123363  0.58897633  0.15436867     0.08680
H500        H  0.26151910  0.47215388  0.02740667     0.08660
H501        H  0.22739119  0.46893227  0.03942407     0.08660
H502        H  0.24208205  0.45467010  0.07764493     0.05440
C503        C  0.26470300  0.49475711  0.38794807    -0.20370
C504        C  0.28765974  0.52046665  0.40323996    -0.06930
C505        C  0.29552712  0.54673121  0.38191652     0.13940
C506        C  0.27960500  0.54678354  0.34622880    -0.20420
C507        C  0.25563940  0.52114968  0.33147329    -0.06940
C508        C  0.24848123  0.49459753  0.35242372     0.13930
C509        C  0.22351751  0.46592637  0.33890627    -0.23770
H510        H  0.25887601  0.47476183  0.40497216     0.15210
H511        H  0.28564540  0.56718224  0.33049443     0.15240
C512        C  0.32046090  0.57475540  0.39742030    -0.23720
H513        H  0.22151327  0.44782770  0.35910936     0.05450
H514        H  0.22675056  0.46214872  0.30398019     0.08680
H515        H  0.20292958  0.46534672  0.34341276     0.08680
H516        H  0.34057790  0.57425100  0.39558748     0.08660
H517        H  0.31618833  0.57815362  0.43205074     0.08660
H518        H  0.32394419  0.59336072  0.37689485     0.05440
C519        C  0.12965195  0.50066721  0.34621167    -0.20370
C520        C  0.15642630  0.52630463  0.33735715    -0.06930
C521        C  0.16556983  0.54948113  0.36638710     0.13940
C522        C  0.14798469  0.54607966  0.40324086    -0.20420
C523        C  0.12179376  0.52021103  0.41252457    -0.06940
C524        C  0.11232828  0.49725105  0.38351392     0.13930
C525        C  0.08481926  0.46867508  0.39277131    -0.23770
H526        H  0.12238918  0.48284201  0.32427099     0.15210
H527        H  0.15498757  0.56363144  0.42571708     0.15240
C528        C  0.19413620  0.57752746  0.36028471    -0.23720
H529        H  0.08188758  0.45253551  0.36825141     0.05450
H530        H  0.06583966  0.47100089  0.39121620     0.08680
H531        H  0.08535440  0.46017783  0.42596484     0.08680
H532        H  0.19468610  0.58843174  0.32881414     0.08660
H533        H  0.21211226  0.57350757  0.36040896     0.08660
H534        H  0.19778803  0.59255023  0.38717702     0.05440
C535        C  0.15100158  0.55294216  0.07781798    -0.20370
C536        C  0.12271291  0.52921962  0.07494098    -0.06930
C537        C  0.11123174  0.50776889  0.10886271     0.13940
C538        C  0.12880605  0.50987860  0.14363424    -0.20420
C539        C  0.15768114  0.53281766  0.14545106    -0.06940
C540        C  0.16866356  0.55509787  0.11256386     0.13930
C541        C  0.19935485  0.58037306  0.11218593    -0.23770
H542        H  0.15969853  0.56929104  0.05158028     0.15210
H543        H  0.12013753  0.49295837  0.16897024     0.15240
C544        C  0.08104952  0.48176491  0.10726519    -0.23720
H545        H  0.20444203  0.59493025  0.08296325     0.05450
H546        H  0.21460301  0.57269184  0.11121842     0.08680
H547        H  0.20280228  0.59317426  0.14202367     0.08680
H548        H  0.07859057  0.47022044  0.07628510     0.08660
H549        H  0.06504391  0.48845200  0.10881954     0.08660
H550        H  0.07607083  0.46648032  0.13542608     0.05440
C551        C  0.52410945  0.06096255  0.48654444    -0.20370
C552        C  0.50636854  0.06631118  0.51385823    -0.06930
C553        C  0.51935928  0.08750544  0.04623627     0.13940
C554        C  0.54947790  0.10437608  0.04764647    -0.20420
C555        C  0.56728414  0.10031362  0.51849179    -0.06940
C556        C  0.55429838  0.07713790  0.48923417     0.13930
C557        C  0.57141166  0.06850060  0.46090113    -0.23770
H558        H  0.51451428  0.04458407  0.46202158     0.15210
H559        H  0.55914633  0.12186259  0.07043175     0.15240
C560        C  0.50180622  0.09265514  0.07970215    -0.23720
H561        H  0.56320023  0.04535487  0.46718582     0.05450
H562        H  0.59470875  0.08051098  0.46808722     0.08680
H563        H  0.56883977  0.07190241  0.42553259     0.08680
H564        H  0.49171986  0.10337350  0.06368701     0.08660
H565        H  0.48502675  0.07198921  0.09583692     0.08660
H566        H  0.51546080  0.10698244  0.10601803     0.05440
C567        C  0.48291783  0.24164810  0.11602160    -0.20370
C568        C  0.45785445  0.23011210  0.14341846    -0.06930
C569        C  0.43448117  0.20173632  0.13605609     0.13940
C570        C  0.43613122  0.18679137  0.09996455    -0.20420
C571        C  0.46031139  0.19933544  0.07103084    -0.06940
C572        C  0.48438762  0.22662726  0.07993846     0.13930
C573        C  0.51165249  0.23985759  0.05145589    -0.23770
H574        H  0.50118136  0.26297100  0.12187214     0.15210
H575        H  0.41792303  0.16560171  0.09313860     0.15240
C576        C  0.40770992  0.18678732  0.16577576    -0.23720
H577        H  0.52877491  0.26085056  0.06398795     0.05450
H578        H  0.50728451  0.24357589  0.01724414     0.08680
H579        H  0.52002316  0.22522317  0.05105196     0.08680
H580        H  0.39541724  0.19767172  0.16294394     0.08660
H581        H  0.41380902  0.18677126  0.20048374     0.08660
H582        H  0.39297058  0.16405417  0.15678433     0.05440
C583        C  0.48021385  0.22005014  0.39247434    -0.20370
C584        C  0.45372069  0.19683906  0.40837534    -0.06930
C585        C  0.42825444  0.18953223  0.38668888     0.13940
C586        C  0.42978647  0.20624700  0.34994234    -0.20420
C587        C  0.45625163  0.23034607  0.33441829    -0.06940
C588        C  0.48199544  0.23692383  0.35584491     0.13930
C589        C  0.51149766  0.26186549  0.34160802    -0.23770
H590        H  0.49960952  0.22539196  0.40969648     0.15210
H591        H  0.40998023  0.20069692  0.33391295     0.15240
C592        C  0.39941516  0.16464608  0.40319298    -0.23720
H593        H  0.52876367  0.26330495  0.36234765     0.05450
H594        H  0.51215819  0.28239753  0.34465018     0.08680
H595        H  0.51668621  0.25923400  0.30706912     0.08680
H596        H  0.39505802  0.16822136  0.43768682     0.08660
H597        H  0.39954810  0.14444281  0.40217087     0.08660
H598        H  0.38152039  0.16200642  0.38278138     0.05440
C599        C  0.44271019  0.07120104  0.52229575    -0.20370
C600        C  0.46354772  0.07061108  0.49495922    -0.06930
C601        C  0.47746477  0.09205599  0.96100446     0.13940
C602        C  0.47388168  0.11561037  0.96014025    -0.20420
C603        C  0.45486797  0.11729393  0.49007594    -0.06940
C604        C  0.43751208  0.09369509  0.51939369     0.13930
C605        C  0.41312605  0.09164411  0.54715842    -0.23770
H606        H  0.43178735  0.05536025  0.54827207     0.15210
H607        H  0.48633468  0.13295714  0.93607132     0.15240
C608        C  0.49616492  0.09070938  0.92502879    -0.23720
H609        H  0.40009192  0.07032242  0.56442092     0.05450
H610        H  0.39848275  0.09449888  0.52572828     0.08680
H611        H  0.42135725  0.10801574  0.07282876     0.08680
H612        H  0.49423542  0.06953944  0.42454837     0.08660
H613        H  0.51907691  0.10794734  0.92910408     0.08660
H614        H  0.48913477  0.09381358  0.89241275     0.05440
C615        C  0.24681552  0.89225170  0.41600788    -0.20370
C616        C  0.27336445  0.89439703  0.42127276    -0.06930
C617        C  0.28199407  0.88046464  0.39146729     0.13940
C618        C  0.26355677  0.86417784  0.35786351    -0.20420
C619        C  0.23661556  0.86139682  0.35303302    -0.06940
C620        C  0.22831565  0.87604368  0.38236441     0.13930
C621        C  0.19954945  0.87379981  0.38016808    -0.23770
H622        H  0.24014795  0.90263683  0.43941208     0.15210
H623        H  0.27020898  0.85335646  0.33534337     0.15240
C624        C  0.31021000  0.88192772  0.39564855    -0.23720
H625        H  0.19625161  0.88527346  0.40737189     0.05450
H626        H  0.18174400  0.85088488  0.38292504     0.08680
H627        H  0.19834633  0.88366336  0.34870730     0.08680
H628        H  0.31181629  0.87477394  0.42933203     0.08660
H629        H  0.32814220  0.90429614  0.38873236     0.08660
H630        H  0.31255486  0.86809429  0.37161787     0.05440
C631        C  0.28412267  0.87866847  0.11334919    -0.20370
C632        C  0.27456443  0.89200608  0.08465302    -0.06930
C633        C  0.24937217  0.89220630  0.09628482     0.13940
C634        C  0.23297815  0.87678164  0.13409080    -0.20420
C635        C  0.24139219  0.86174500  0.16156295    -0.06940
C636        C  0.26803922  0.86368447  0.15182164     0.13930
C637        C  0.27999373  0.85033368  0.18152668    -0.23770
H638        H  0.30381864  0.87916983  0.10479596     0.15210
H639        H  0.21311065  0.87617967  0.14161682     0.15240
C640        C  0.23927214  0.90874674  0.07002485    -0.23720
H641        H  0.30207520  0.85623222  0.17045789     0.05450
H642        H  0.26614654  0.82654625  0.18134978     0.08680
H643        H  0.28131601  0.85796620  0.21563733     0.08680
H644        H  0.21798427  0.89353142  0.05601568     0.08660
H645        H  0.25455353  0.92221658  0.04278045     0.08660
H646        H  0.23690244  0.92346737  0.09207015     0.05440
C647        C  0.37626506  0.97967183  0.03912910    -0.20370
C648        C  0.36494122  0.96533899  0.49931904    -0.06930
C649        C  0.38451081  0.97434084  0.46197248     0.13940
C650        C  0.41297789  0.99755330  0.46555254    -0.20420
C651        C  0.42485516  0.00739543  0.50671460    -0.06940
C652        C  0.40597771  0.99843565  0.04418181     0.13930
C653        C  0.41617978  0.00795755  0.09012356    -0.23770
H654        H  0.36229779  0.97550685  0.06773351     0.15210
H655        H  0.42680721  0.00600152  0.43617657     0.15240
C656        C  0.37819164  0.95769682  0.42026296    -0.23720
H657        H  0.41186902  0.98915458  0.11091954     0.05450
H658        H  0.40431847  0.01741658  0.60496462     0.08680
H659        H  0.43944990  0.02460015  0.09048948     0.08680
H660        H  0.36650989  0.96351084  0.39705715     0.08660
H661        H  0.36644037  0.93435183  0.92856818     0.08660
H662        H  0.39841964  0.96269481  0.40238801     0.05440
C663        C  0.44322481  0.82557644  0.13289456    -0.20370
C664        C  0.46524949  0.83929859  0.16337578    -0.06930
C665        C  0.48542208  0.86922262  0.15798847     0.13940
C666        C  0.48482911  0.88381158  0.11997268    -0.20420
C667        C  0.46400256  0.86958477  0.08803131    -0.06940
C668        C  0.44210821  0.84039684  0.09564353     0.13930
C669        C  0.41731077  0.82426156  0.06525103    -0.23770
H670        H  0.42716596  0.80284153  0.13741579     0.15210
H671        H  0.50126373  0.90637428  0.11468786     0.15240
C672        C  0.50743678  0.88666930  0.19177518    -0.23720
H673        H  0.39656744  0.81516609  0.08439659     0.05450
H674        H  0.41836991  0.80638784  0.05042104     0.08680
H675        H  0.41718234  0.83810802  0.03834190     0.08680
H676        H  0.50450948  0.87445123  0.22286420     0.08660
H677        H  0.50542752  0.90517004  0.20073916     0.08660
H678        H  0.52952010  0.89500120  0.17767659     0.05440
C679        C  0.45938966  0.86909686  0.39384894    -0.20370
C680        C  0.48033636  0.87554460  0.42539300    -0.06930
C681        C  0.49993973  0.86629770  0.41906169     0.13940
C682        C  0.49700435  0.84944476  0.38283086    -0.20420
C683        C  0.47524178  0.84183175  0.35225139    -0.06940
C684        C  0.45681502  0.85271773  0.35698756     0.13930
C685        C  0.43485086  0.84837528  0.32354713    -0.23770
H686        H  0.44457028  0.87651578  0.39840978     0.15210
H687        H  0.51162249  0.84173391  0.37891769     0.15240
C688        C  0.52427868  0.87392592  0.44966275    -0.23720
H689        H  0.41277485  0.83533371  0.33879736     0.05450
H690        H  0.43600168  0.83779769  0.29343300     0.08680
H691        H  0.43866653  0.86961465  0.31272534     0.08680
H692        H  0.52116781  0.85401047  0.46544614     0.08660
H693        H  0.52593902  0.88855265  0.47592190     0.08660
H694        H  0.54512575  0.88498993  0.43046133     0.05440
C695        C  0.48481453  0.97220140  0.03896267    -0.20370
C696        C  0.47644507  0.95488320  0.50143584    -0.06930
C697        C  0.46594846  0.96314135  0.46523831     0.13940
C698        C  0.46437626  0.98777679  0.46803328    -0.20420
C699        C  0.46831277  0.00217357  0.50764397    -0.06940
C700        C  0.47963608  0.99474969  0.04344577     0.13930
C701        C  0.48550947  0.00942542  0.08693670    -0.23770
H702        H  0.49404385  0.96708672  0.06620397     0.15210
H703        H  0.45863591  0.99494645  0.43897279     0.15240
C704        C  0.45357077  0.94531581  0.42481849    -0.23720
H705        H  0.49540539  0.00144364  0.11019119     0.05450
H706        H  0.46508121  0.00490549  0.10284448     0.08680
H707        H  0.50067716  0.03285288  0.08241406     0.08680
H708        H  0.43930909  0.92219414  0.43426375     0.08660
H709        H  0.47110485  0.94894690  0.40131766     0.08660
H710        H  0.44000779  0.95144241  0.40662464     0.05440
C711        C  0.81777255  0.31835589  0.15058561    -0.20370
C712        C  0.79033680  0.31456848  0.15805291    -0.06930
C713        C  0.78038769  0.32718983  0.12765263     0.13940
C714        C  0.79781468  0.34253986  0.09060353    -0.20420
C715        C  0.82474939  0.34565298  0.08295548    -0.06940
C716        C  0.83511383  0.33380888  0.11336471     0.13930
C717        C  0.86398641  0.33675235  0.10583594    -0.23770
H718        H  0.82559103  0.30889614  0.17369501     0.15210
H719        H  0.79022037  0.35189352  0.06685137     0.15240
C720        C  0.75112529  0.32385203  0.13256236    -0.23720
H721        H  0.86854867  0.32565279  0.13241667     0.05450
H722        H  0.88141159  0.35981672  0.10499762     0.08680
H723        H  0.86432421  0.32718637  0.07395239     0.08680
H724        H  0.74999155  0.33431975  0.16295983     0.08660
H725        H  0.73390185  0.30069138  0.13385575     0.08660
H726        H  0.74677447  0.33411601  0.10443371     0.05440
C727        C  0.81175398  0.31020619  0.36945693    -0.20370
C728        C  0.79241509  0.31655404  0.34989211    -0.06930
C729        C  0.79201516  0.34099746  0.36441828     0.13940
C730        C  0.80949262  0.35698077  0.39929744    -0.20420
C731        C  0.82726005  0.34931135  0.42019498    -0.06940
C732        C  0.82903263  0.32617478  0.40432071     0.13930
C733        C  0.84919903  0.31830133  0.42420948    -0.23770
H734        H  0.81290273  0.29209670  0.35833008     0.15210
H735        H  0.80840266  0.37489707  0.41165210     0.15240
C736        C  0.77325469  0.35052726  0.34409038    -0.23720
H737        H  0.84870382  0.30031399  0.40685998     0.05450
H738        H  0.84298996  0.31151021  0.45935898     0.08680
H739        H  0.87167709  0.33715868  0.42186853     0.08680
H740        H  0.75010193  0.33383808  0.35019354     0.08660
H741        H  0.77826266  0.35465669  0.30809086     0.08660
H742        H  0.77690951  0.37070868  0.35843086     0.05440
C743        C  0.69539379  0.19049614  0.37771385    -0.20370
C744        C  0.68689117  0.20785339  0.35657803    -0.06930
C745        C  0.66110290  0.20610923  0.37185705     0.13940
C746        C  0.64596465  0.18868930  0.40916746    -0.20420
C747        C  0.65575698  0.17303096  0.43153051    -0.06940
C748        C  0.68014296  0.17313621  0.41487506     0.13930
C749        C  0.68996719  0.15477381  0.43612245    -0.23770
H750        H  0.71455400  0.19096097  0.36590211     0.15210
H751        H  0.62688674  0.18804102  0.42200946     0.15240
C752        C  0.64916013  0.22236450  0.34968581    -0.23720
H753        H  0.70876787  0.15657345  0.41784078     0.05450
H754        H  0.67208169  0.13187542  0.43668126     0.08680
H755        H  0.69649132  0.16150314  0.47036432     0.08680
H756        H  0.64560752  0.21681938  0.31436222     0.08660
H757        H  0.66425156  0.24585411  0.35279089     0.08660
H758        H  0.62809016  0.21694258  0.36494909     0.05440
C759        C  0.64761839  0.18991311  0.11447013    -0.20370
C760        C  0.65630707  0.17260025  0.09465236    -0.06930
C761        C  0.67993633  0.17198391  0.11114802     0.13940
C762        C  0.69501180  0.18948569  0.14638026    -0.20420
C763        C  0.68732890  0.20803897  0.16541361    -0.06940
C764        C  0.66277811  0.20775847  0.14941671     0.13930
C765        C  0.65230591  0.22622200  0.16808189    -0.23770
H766        H  0.62939416  0.19019431  0.10134341     0.15210
H767        H  0.71340454  0.18907540  0.15830947     0.15240
C768        C  0.68924837  0.15287529  0.09145396    -0.23720
H769        H  0.63237975  0.22230091  0.15224135     0.05450
H770        H  0.66902366  0.24930864  0.16228357     0.08680
H771        H  0.64716734  0.22133137  0.20394353     0.08680
H772        H  0.69596872  0.15912811  0.05627394     0.08660
H773        H  0.67100528  0.13014613  0.09382537     0.08660
H774        H  0.70775501  0.15445601  0.10884952     0.05440
O775        O  0.75213310  0.29898582  0.80151017    -0.74490
O776        O  0.70193110  0.24709883  0.71530344    -0.74520
O777        O  0.70192752  0.24722211  0.80460024    -0.74570
O778        O  0.75191076  0.29870532  0.71227905    -0.74620
O779        O  0.77658378  0.27675539  0.71157878    -0.74550
O780        O  0.72660777  0.22534496  0.80436101    -0.74530
O781        O  0.72651894  0.22514247  0.71504474    -0.74510
O782        O  0.77689758  0.27720690  0.80099545    -0.74570
Ni783      Ni  0.72611082  0.27377851  0.75848069     1.25410
Ni784      Ni  0.75254357  0.25034297  0.75805433     1.25360
C785        C  0.77294025  0.29682114  0.81558735     0.87690
C786        C  0.70595837  0.22762056  0.70050836     0.87630
C787        C  0.70585508  0.22766283  0.81983883     0.87650
C788        C  0.77213567  0.29592829  0.69597774     0.87820
C789        C  0.47647406  0.92738743  0.00319699     0.03070
C790        C  0.48287641  0.91660910  0.96552572    -0.13080
C791        C  0.47910316  0.88920576  0.96652421     0.00570
C792        C  0.47213001  0.87369466  0.00658082    -0.11610
C793        C  0.46784078  0.88480089  0.54525650     0.03060
C794        C  0.46919521  0.91112332  0.54322025    -0.11030
H795        H  0.49083279  0.92919657  0.93519867     0.08660
H796        H  0.47020567  0.85293716  0.00769720     0.06190
H797        H  0.46427474  0.91860739  0.57301918     0.06030
C798        C  0.33369498  0.94058824  0.99965456     0.03070
C799        C  0.31960470  0.92579573  0.53988547    -0.13080
C800        C  0.29026322  0.90422006  0.54179062     0.00570
C801        C  0.27563719  0.89400715  0.00265861    -0.11610
C802        C  0.28916146  0.90709937  0.96212849     0.03060
C803        C  0.31722447  0.93157229  0.96114158    -0.11030
H804        H  0.33089733  0.93095729  0.57044566     0.08660
H805        H  0.25351092  0.87588747  0.00384534     0.06190
H806        H  0.32540844  0.94329469  0.93027683     0.06030
C807        C  0.45406176  0.14402265  0.99024475     0.03070
C808        C  0.45182884  0.15613865  0.95043241    -0.13080
C809        C  0.45321814  0.18244234  0.95012951     0.00570
C810        C  0.45608736  0.19635927  0.98971308    -0.11610
C811        C  0.45858861  0.18475469  0.52952534     0.03060
C812        C  0.45810680  0.15889412  0.52961797    -0.11030
H813        H  0.44960315  0.14545937  0.91963069     0.08660
H814        H  0.45659722  0.21644256  0.98945621     0.06190
H815        H  0.46161367  0.15086202  0.56015449     0.06030
C816        C  0.59870110  0.12253997  0.01662252     0.03070
C817        C  0.61369874  0.13386434  0.55576069    -0.13080
C818        C  0.64206613  0.15770147  0.55407379     0.00570
C819        C  0.65589245  0.16969019  0.01316015    -0.11610
C820        C  0.64142984  0.15851569  0.97400545     0.03060
C821        C  0.61269347  0.13548933  0.97584067    -0.11030
H822        H  0.60300999  0.12487470  0.58759034     0.08660
H823        H  0.67756054  0.18858675  0.01183553     0.06190
H824        H  0.60105208  0.12821677  0.94553782     0.06030
C825        C  0.45691909  0.02198997  0.01029956     0.00500
C826        C  0.47455711  0.05129372  0.00670624     0.00500
O827        O  0.24420765  0.54823888  0.78210079    -0.74490
O828        O  0.19739897  0.55425259  0.69486281    -0.74520
O829        O  0.19610166  0.55101725  0.78437193    -0.74570
O830        O  0.24578257  0.55155483  0.69258389    -0.74620
O831        O  0.21837480  0.50389464  0.69094446    -0.74550
O832        O  0.16915472  0.50333155  0.78306556    -0.74530
O833        O  0.17009231  0.50651526  0.69386193    -0.74510
O834        O  0.21714040  0.50064004  0.78001169    -0.74570
Ni835      Ni  0.22184698  0.55298992  0.73849812     1.25410
Ni836      Ni  0.19273737  0.50193805  0.73683717     1.25360
C837        C  0.23822349  0.52335521  0.79594557     0.87690
C838        C  0.17599364  0.53129421  0.67982087     0.87630
C839        C  0.17474729  0.52707354  0.79959984     0.87650
C840        C  0.24031472  0.52774695  0.67652235     0.87820
O841        O  0.14939333  0.79888163  0.71318809    -0.74490
O842        O  0.19876824  0.84701796  0.80203370    -0.74520
O843        O  0.20166007  0.84801704  0.71272670    -0.74570
O844        O  0.14663919  0.79723678  0.80248634    -0.74620
O845        O  0.16820257  0.77227417  0.80352803    -0.74550
O846        O  0.22282223  0.82264927  0.71448223    -0.74530
O847        O  0.22038640  0.82206588  0.80392082    -0.74510
O848        O  0.17040926  0.77344051  0.71397879    -0.74570
Ni849      Ni  0.17336608  0.82366956  0.75758993     1.25410
Ni850      Ni  0.19622944  0.79671074  0.75908039     1.25360
C851        C  0.15162284  0.77838021  0.69839821     0.87690
C852        C  0.21764106  0.84257189  0.81800051     0.87630
C853        C  0.22126244  0.84349962  0.69846856     0.87650
C854        C  0.14832918  0.77619898  0.81788666     0.87820
C855        C  0.06623919  0.51832074  0.99185335     0.03070
C856        C  0.08102955  0.52378739  0.53174074    -0.13080
C857        C  0.10748725  0.52518711  0.53315465     0.00570
C858        C  0.12008357  0.52293132  0.99399481    -0.11610
C859        C  0.10596512  0.51791158  0.95410743     0.03060
C860        C  0.07848495  0.51414121  0.95366140    -0.11030
H861        H  0.07237241  0.52760285  0.56152900     0.08660
H862        H  0.14110991  0.52523035  0.99446013     0.06190
H863        H  0.06731708  0.50911011  0.92312572     0.06030
C864        C  0.04657746  0.66889279  0.01822703     0.03070
C865        C  0.05646632  0.68262568  0.97633681    -0.13080
C866        C  0.07952509  0.71137037  0.97241232     0.00570
C867        C  0.09300098  0.72602737  0.01055302    -0.11610
C868        C  0.08363100  0.71234867  0.55213805     0.03060
C869        C  0.06024473  0.68396995  0.55600434    -0.11030
H870        H  0.04722944  0.67053429  0.94687091     0.08660
H871        H  0.11173961  0.74771404  0.00774916     0.06190
H872        H  0.05404618  0.67304144  0.58808387     0.06030
C873        C  0.87537419  0.40528546  0.00271606     0.03070
C874        C  0.86311485  0.39246649  0.96245262    -0.13080
C875        C  0.84093529  0.36335319  0.96171450     0.00570
C876        C  0.82961415  0.34771750  0.00154270    -0.11610
C877        C  0.84072983  0.36052456  0.54171928     0.03060
C878        C  0.86407356  0.38890224  0.54221305    -0.11030
H879        H  0.86992782  0.40518787  0.93200437     0.08660
H880        H  0.81119805  0.32583201  0.00139852     0.06190
H881        H  0.87228999  0.39872746  0.57360602     0.06030
C882        C  0.85257310  0.54197728  0.99115223     0.03070
C883        C  0.83977856  0.53936702  0.53324123    -0.13080
C884        C  0.81254788  0.53646741  0.53720723     0.00570
C885        C  0.79877085  0.53704695  0.99901601    -0.11610
C886        C  0.81164621  0.54022700  0.95719716     0.03900
C887        C  0.83828745  0.54223074  0.95337143    -0.11030
H888        H  0.85057661  0.53888326  0.56254583     0.08660
H889        H  0.77801058  0.53529208  0.00185704     0.06190
H890        H  0.84808110  0.54429072  0.92094556     0.06030
C891        C  0.97839812  0.54510794  0.01217057     0.00500
C892        C  0.94975017  0.52955819  0.99921889     0.00500
O893        O  0.42911124  0.29114429  0.78124182    -0.74490
O894        O  0.43234636  0.24337185  0.69348568    -0.74520
O895        O  0.43149415  0.24302103  0.78289164    -0.74570
O896        O  0.43026189  0.29183778  0.69188211    -0.74620
O897        O  0.47829352  0.31845394  0.69055200    -0.74550
O898        O  0.47941652  0.26971967  0.78111459    -0.74530
O899        O  0.48034018  0.26995134  0.69180801    -0.74510
O900        O  0.47706544  0.31781618  0.78004008    -0.74570
Ni901      Ni  0.42910389  0.26639742  0.73735678     1.25410
Ni902      Ni  0.48047814  0.29493950  0.73579051     1.25360
C903        C  0.45254299  0.31227970  0.79561269     0.87690
C904        C  0.45675965  0.24852332  0.67821142     0.87630
C905        C  0.45577931  0.24850088  0.79751006     0.87650
C906        C  0.45409263  0.31331648  0.67626045     0.87820
O907        O  0.72611078  0.51403247  0.70589303    -0.74490
O908        O  0.67675143  0.51674627  0.79558355    -0.74520
O909        O  0.67717675  0.51587753  0.70596647    -0.74570
O910        O  0.72561960  0.51517427  0.79544079    -0.74620
O911        O  0.75229092  0.56303272  0.79113218    -0.74550
O912        O  0.70366558  0.56363436  0.70286776    -0.74530
O913        O  0.70352659  0.56453662  0.79206264    -0.74510
O914        O  0.75245165  0.56181862  0.70213224    -0.74570
Ni915      Ni  0.70044183  0.51372545  0.75077566     1.25410
Ni916      Ni  0.72887842  0.56491327  0.74687290     1.25360
C917        C  0.74761500  0.53750169  0.68934603     0.87690
C918        C  0.68242160  0.54117004  0.80939748     0.87630
C919        C  0.68234864  0.53993554  0.68965101     0.87650
C920        C  0.74703971  0.53909090  0.80793390     0.87820
O921        O  0.49543703  0.77678925  0.79745074    -0.74490
O922        O  0.49179989  0.82582717  0.70921585    -0.74520
O923        O  0.49602401  0.82658141  0.79805866    -0.74570
O924        O  0.49204756  0.77655407  0.70848637    -0.74620
O925        O  0.44405417  0.75129772  0.71493033    -0.74550
O926        O  0.44797941  0.80161625  0.80569269    -0.74530
O927        O  0.44374952  0.80064170  0.71664435    -0.74510
O928        O  0.44745062  0.75174506  0.80405390    -0.74570
Ni929      Ni  0.49551108  0.80231728  0.75305121     1.25410
Ni930      Ni  0.44408655  0.77542080  0.76060761     1.25360
C931        C  0.47189099  0.75603614  0.81533556     0.87690
C932        C  0.46709833  0.82132295  0.69853750     0.87630
C933        C  0.47280725  0.82254611  0.81658359     0.87650
C934        C  0.46757026  0.75581345  0.69649451     0.87820
C935        C  0.33841648  0.51695868  0.98354733     0.03070
C936        C  0.32398499  0.51496502  0.94431375    -0.13080
C937        C  0.30115031  0.51980412  0.94444773     0.00570
C938        C  0.29071144  0.52400417  0.98417319    -0.11610
C939        C  0.30378459  0.52480683  0.52365682     0.03060
C940        C  0.32878130  0.52349677  0.52280258    -0.11030
H941        H  0.33036075  0.50992319  0.91341798     0.08660
H942        H  0.27196169  0.52607004  0.98449084     0.06190
H943        H  0.34002375  0.52682042  0.55317574     0.06030
C944        C  0.47339780  0.65435677  0.01126275     0.03070
C945        C  0.47528573  0.66924056  0.54981268    -0.13080
C946        C  0.47391920  0.69411233  0.54786516     0.00570
C947        C  0.47352089  0.70589523  0.00689688    -0.11610
C948        C  0.47379374  0.69274195  0.96788212     0.03060
C949        C  0.47242347  0.66642955  0.97018163    -0.11030
H950        H  0.47770313  0.66169838  0.58144940     0.08660
H951        H  0.47324061  0.72556145  0.00535890     0.06190
H952        H  0.47088639  0.65564557  0.93976817     0.06030
C953        C  0.44652153  0.41225431  0.98225183     0.03070
C954        C  0.45101187  0.40198084  0.52250913    -0.13080
C955        C  0.45167629  0.37670323  0.52429434     0.00570
C956        C  0.44889865  0.36209667  0.98548951    -0.11610
C957        C  0.44451006  0.37196655  0.94548596     0.03060
C958        C  0.44199162  0.39612855  0.94425951    -0.11030
H959        H  0.45454105  0.41381504  0.55244029     0.08660
H960        H  0.45038405  0.34309430  0.98634637     0.06190
H961        H  0.43669171  0.40219809  0.91356489     0.06030
C962        C  0.58232940  0.54823076  0.00388088     0.03070
C963        C  0.59171101  0.54167010  0.96425987    -0.13080
C964        C  0.61622505  0.53941078  0.96295629     0.00570
C965        C  0.62942314  0.54018362  0.00233922    -0.11610
C966        C  0.61958939  0.54493153  0.54220330     0.03060
C967        C  0.59689268  0.54994741  0.54283350    -0.11030
H968        H  0.58065410  0.53909537  0.93399282     0.08660
H969        H  0.64799029  0.53781372  0.00181479     0.06190
H970        H  0.59104639  0.55535518  0.57385332     0.06030
C971        C  0.45262220  0.53982144  0.99361334     0.00500
C972        C  0.46846760  0.52708811  0.99797826     0.00500
C973        C  0.51898284  0.55328071  0.46603032    -0.20370
C974        C  0.50055917  0.54372427  0.00377469    -0.06930
C975        C  0.51220895  0.54216869  0.04407639     0.13940
C976        C  0.53877702  0.54368835  0.04377808    -0.20420
C977        C  0.55652529  0.55153755  0.00509198    -0.06940
C978        C  0.54762520  0.56027783  0.46753830     0.13930
C979        C  0.56753640  0.57777767  0.42909574    -0.23770
H980        H  0.51108347  0.55400572  0.43421125     0.15210
H981        H  0.54503124  0.53824402  0.07418709     0.15240
C982        C  0.49730030  0.53912136  0.08779953    -0.23720
H983        H  0.56592466  0.59694319  0.42294287     0.05450
H984        H  0.56110747  0.56480818  0.89892859     0.08680
H985        H  0.59054167  0.58611733  0.43562463     0.08680
H986        H  0.48959248  0.51764940  0.10316421     0.08660
H987        H  0.47929261  0.54284045  0.58449196     0.08660
H988        H  0.51279446  0.55584340  0.11004428     0.05440
C989        C  0.43485281  0.44605173  0.51668957    -0.20370
C990        C  0.44721227  0.43998437  0.98068147    -0.06930
C991        C  0.46280605  0.46187606  0.94759666     0.13940
C992        C  0.46536530  0.48863984  0.95197178    -0.20420
C993        C  0.45602553  0.49570787  0.99054001    -0.06940
C994        C  0.44071042  0.47385650  0.52365235     0.13930
C995        C  0.43218618  0.47889608  0.56839190    -0.23770
H996        H  0.42255961  0.42949951  0.54195653     0.15210
H997        H  0.47696062  0.50505750  0.92638022     0.15240
C998        C  0.47941069  0.45883356  0.90977739    -0.23720
H999        H  0.44145511  0.47183935  0.59428731     0.05450
H1000       H  0.40828534  0.46626562  0.07280118     0.08680
H1001       H  0.44030391  0.50164319  0.57359455     0.08680
H1002       H  0.46451909  0.44483131  0.88442779     0.08660
H1003       H  0.49258061  0.45025453  0.42201912     0.08660
H1004       H  0.49458317  0.47988243  0.89291953     0.05440
C1005       C  0.48666881  0.62125241  0.97828382    -0.20370
C1006       C  0.47255622  0.62646639  0.01282698    -0.06930
C1007       C  0.45560763  0.60375595  0.54431545     0.13940
C1008       C  0.45358021  0.57722795  0.53977621    -0.20420
C1009       C  0.46458847  0.57104539  0.00209438    -0.06940
C1010       C  0.48107229  0.59361967  0.97049778     0.13930
C1011       C  0.49095952  0.58956275  0.92619615    -0.23770
H1012       H  0.50019470  0.63837263  0.95443354     0.15210
H1013       H  0.44112144  0.56029687  0.56433081     0.15240
C1014       C  0.43719011  0.60566193  0.58037251    -0.23720
H1015       H  0.48317115  0.59791675  0.89986902     0.05450
H1016       H  0.48216107  0.56689084  0.91956362     0.08680
H1017       H  0.51492954  0.60152885  0.92393782     0.08680
H1018       H  0.42496765  0.61501813  0.56703747     0.08660
H1019       H  0.45069449  0.61839178  0.60788775     0.08660
H1020       H  0.42098835  0.58409230  0.59474662     0.05440
C1021       C  0.38290079  0.52299257  0.44515810    -0.20370
C1022       C  0.36445586  0.51416505  0.98309043    -0.06930
C1023       C  0.37284678  0.50503225  0.02080419     0.13940
C1024       C  0.40150438  0.51220568  0.02328208    -0.20420
C1025       C  0.42068710  0.52299394  0.98642902    -0.06940
C1026       C  0.40973433  0.52514788  0.44577912     0.13930
C1027       C  0.42571165  0.52954840  0.40262321    -0.23770
H1028       H  0.37698104  0.52879270  0.41472321     0.15210
H1029       H  0.40882694  0.51070633  0.05519331     0.15240
C1030       C  0.35242156  0.48718224  0.05858906    -0.23720
H1031       H  0.41089172  0.51344570  0.37903235     0.05450
H1032       H  0.44371947  0.52587267  0.90628622     0.08680
H1033       H  0.43360845  0.55139791  0.38862473     0.08680
H1034       H  0.32952449  0.47895815  0.05142069     0.08660
H1035       H  0.35842737  0.49984813  0.58901760     0.08660
H1036       H  0.35394705  0.46795942  0.06465555     0.05440
C1037       C  0.49783512  0.74944297  0.87628798    -0.20370
C1038       C  0.47307063  0.73759680  0.85081364    -0.06930
C1039       C  0.44995155  0.70903679  0.86099026     0.13940
C1040       C  0.45151131  0.69415552  0.89799882    -0.20420
C1041       C  0.47545424  0.70697080  0.92502047    -0.06940
C1042       C  0.49939733  0.73449913  0.91296704     0.13930
C1043       C  0.52695053  0.74880773  0.93811672    -0.23770
H1044       H  0.51593914  0.77095287  0.86838428     0.15210
H1045       H  0.43341408  0.67285411  0.90702446     0.15240
C1046       C  0.42361095  0.69388660  0.83320128    -0.23720
H1047       H  0.54545965  0.75429168  0.91524708     0.05450
H1048       H  0.52696056  0.73494870  0.96511192     0.08680
H1049       H  0.53036642  0.76888412  0.95246859     0.08680
H1050       H  0.43027835  0.69426154  0.79821246     0.08660
H1051       H  0.41091866  0.70437562  0.83592149     0.08660
H1052       H  0.40907184  0.67103748  0.84406684     0.05440
C1053       C  0.44626207  0.70746977  0.59689106    -0.20370
C1054       C  0.47173540  0.70756849  0.58845991    -0.06930
C1055       C  0.49505875  0.72217187  0.61670660     0.13940
C1056       C  0.49245785  0.73669797  0.65250109    -0.20420
C1057       C  0.46723359  0.73736466  0.66060335    -0.06940
C1058       C  0.44363506  0.72217917  0.63247904     0.13930
C1059       C  0.41610064  0.72223601  0.63824359    -0.23770
H1060       H  0.42852195  0.69627987  0.57474158     0.15210
H1061       H  0.51060418  0.74813284  0.67383391     0.15240
C1062       C  0.52316425  0.72362675  0.60802915    -0.23720
H1063       H  0.40062336  0.71017965  0.61206143     0.05450
H1064       H  0.42098188  0.74466376  0.63660538     0.08680
H1065       H  0.40525738  0.71179973  0.67041124     0.08680
H1066       H  0.53197559  0.73310881  0.57454319     0.08660
H1067       H  0.51969832  0.70178109  0.61042409     0.08660
H1068       H  0.53960289  0.73710456  0.63225746     0.05440
C1069       C  0.67553396  0.56672509  0.62915521    -0.20370
C1070       C  0.66425870  0.54091795  0.65425737    -0.06930
C1071       C  0.63653255  0.51719496  0.64438461     0.13940
C1072       C  0.62174637  0.51967775  0.60884711    -0.20420
C1073       C  0.63385263  0.54503195  0.58300093    -0.06940
C1074       C  0.66073574  0.56897835  0.59363347     0.13930
C1075       C  0.67392677  0.59679568  0.56707335    -0.23770
H1076       H  0.69648695  0.58514524  0.63646200     0.15210
H1077       H  0.60099228  0.50142302  0.60019962     0.15240
C1078       C  0.62214927  0.48921561  0.67074513    -0.23720
H1079       H  0.69490772  0.61360261  0.58019748     0.05450
H1080       H  0.65903872  0.60490810  0.56800728     0.08680
H1081       H  0.67778907  0.59328586  0.53230062     0.08680
H1082       H  0.62037556  0.49323888  0.70611546     0.08660
H1083       H  0.63472995  0.47866872  0.66678506     0.08660
H1084       H  0.59998447  0.47390449  0.65959940     0.05440
C1085       C  0.63591793  0.51927413  0.85342751    -0.20370
C1086       C  0.66472399  0.54223706  0.84660559    -0.06930
C1087       C  0.67650333  0.56475449  0.87714551     0.13940
C1088       C  0.65940954  0.56349586  0.91332864    -0.20420
C1089       C  0.63100555  0.54028319  0.92070338    -0.06940
C1090       C  0.61891587  0.51800328  0.89011169     0.13930
C1091       C  0.58869869  0.49233531  0.89699407    -0.23770
H1092       H  0.62677359  0.50196788  0.83028597     0.15210
H1093       H  0.66858048  0.58049325  0.93703505     0.15240
C1094       C  0.70748902  0.58952924  0.87359777    -0.23720
H1095       H  0.58324955  0.47625949  0.87108854     0.05450
H1096       H  0.57280546  0.49913731  0.89575794     0.08680
H1097       H  0.58659012  0.48169502  0.92950086     0.08680
H1098       H  0.71106877  0.60272216  0.84326485     0.08660
H1099       H  0.72224043  0.58124910  0.87304198     0.08660
H1100       H  0.71324106  0.60397643  0.90198099     0.05440
C1101       C  0.47159848  0.37015601  0.88086807    -0.20370
C1102       C  0.44524053  0.35827432  0.90446495    -0.06930
C1103       C  0.42106046  0.33253690  0.89091593     0.13940
C1104       C  0.42401598  0.31861099  0.85458169    -0.20420
C1105       C  0.45078065  0.32963840  0.83164959    -0.06940
C1106       C  0.47484283  0.35623039  0.84472081     0.13930
C1107       C  0.50406736  0.37028184  0.82137933    -0.23770
H1108       H  0.49000997  0.39006306  0.89178875     0.15210
H1109       H  0.40535219  0.29851198  0.84493482     0.15240
C1110       C  0.39227532  0.31969016  0.91515912    -0.23720
H1111       H  0.51958987  0.39156892  0.83500495     0.05450
H1112       H  0.50201515  0.37374961  0.78582426     0.08680
H1113       H  0.51343062  0.35665124  0.82543958     0.08680
H1114       H  0.38506796  0.33527056  0.91442367     0.08660
H1115       H  0.39422332  0.31457811  0.94998115     0.08660
H1116       H  0.37543296  0.29956534  0.90003409     0.05440
C1117       C  0.47802140  0.34564043  0.61047725    -0.20370
C1118       C  0.45405953  0.33205444  0.64020617    -0.06930
C1119       C  0.43094752  0.33659445  0.63432961     0.13940
C1120       C  0.43171162  0.35297413  0.59755277    -0.20420
C1121       C  0.45483904  0.36485561  0.56651657    -0.06940
C1122       C  0.47874950  0.36199957  0.57390706     0.13930
C1123       C  0.50534398  0.37587469  0.54382703    -0.23770
H1124       H  0.49614691  0.34291572  0.61505044     0.15210
H1125       H  0.41355768  0.35549578  0.59190564     0.15240
C1126       C  0.40551094  0.32454909  0.66656907    -0.23720
H1127       H  0.52464895  0.38992564  0.56328970     0.05450
H1128       H  0.50458550  0.38943912  0.51704996     0.08680
H1129       H  0.50795651  0.35898397  0.52869178     0.08680
H1130       H  0.41320919  0.33160253  0.70035095     0.08660
H1131       H  0.39279492  0.30072782  0.66591454     0.08660
H1132       H  0.39070550  0.33204449  0.65833996     0.05440
C1133       C  0.78807692  0.51944465  0.88686100    -0.20370
C1134       C  0.79700493  0.54131676  0.91745225    -0.06930
C1135       C  0.79117707  0.56331104  0.91012472     0.13940
C1136       C  0.77511606  0.56191147  0.87379585    -0.20420
C1137       C  0.76535089  0.53959639  0.84371931    -0.06940
C1138       C  0.77283380  0.51857069  0.84954336     0.13930
C1139       C  0.76632391  0.49564037  0.81668587    -0.23770
H1140       H  0.79315033  0.50294457  0.89207223     0.15210
H1141       H  0.76996934  0.57840306  0.86920942     0.15240
C1142       C  0.80193735  0.58884922  0.93934437    -0.23720
H1143       H  0.75068881  0.47414543  0.83179676     0.05450
H1144       H  0.78658078  0.49642574  0.80744648     0.08680
H1145       H  0.75769108  0.49837316  0.78557229     0.08680
H1146       H  0.81602600  0.58937633  0.96559460     0.08660
H1147       H  0.78324532  0.58867412  0.95507504     0.08660
H1148       H  0.81483239  0.60896977  0.91903916     0.05440
C1149       C  0.81093656  0.55735036  0.60852670    -0.20370
C1150       C  0.79823158  0.53383258  0.58073071    -0.06930
C1151       C  0.77019422  0.51024216  0.59174232     0.13940
C1152       C  0.75469453  0.51183664  0.62797184    -0.20420
C1153       C  0.76645081  0.53631021  0.65403860    -0.06940
C1154       C  0.79550258  0.55894431  0.64506937     0.13930
C1155       C  0.81057983  0.58487131  0.67357642    -0.23770
H1156       H  0.83254490  0.57526391  0.60022551     0.15210
H1157       H  0.73283920  0.49400652  0.63502259     0.15240
C1158       C  0.75589570  0.48311698  0.56574442    -0.23720
H1159       H  0.83375101  0.59909895  0.66355208     0.05450
H1160       H  0.80945923  0.57788080  0.70850809     0.08680
H1161       H  0.80044911  0.59786185  0.67063742     0.08680
H1162       H  0.77025377  0.48312758  0.53927335     0.08660
H1163       H  0.73621341  0.48030864  0.55059980     0.08660
H1164       H  0.74957627  0.46436777  0.58819548     0.05440
C1165       C  0.87988680  0.52052250  0.96340256    -0.20370
C1166       C  0.88005685  0.54272367  0.98582120    -0.06930
C1167       C  0.90692843  0.56679217  0.49658897     0.13940
C1168       C  0.93207368  0.56553306  0.49176721    -0.20420
C1169       C  0.93051683  0.53992156  0.98050882    -0.06940
C1170       C  0.90527831  0.52021005  0.95753677     0.13930
C1171       C  0.90510666  0.50021573  0.92382912    -0.23770
H1172       H  0.86009431  0.50385047  0.94916037     0.15210
H1173       H  0.95243831  0.58520383  0.49259168     0.15240
C1174       C  0.90915990  0.59404265  0.51120111    -0.23720
H1175       H  0.89662266  0.50316961  0.89252367     0.05450
H1176       H  0.89095698  0.47751729  0.43565061     0.08680
H1177       H  0.92723824  0.50519853  0.91572495     0.08680
H1178       H  0.89670358  0.58995144  0.54273338     0.08660
H1179       H  0.90038036  0.60185484  0.98564859     0.08660
H1180       H  0.93188550  0.61128790  0.51631821     0.05440
C1181       C  0.89183211  0.45290700  0.53451569    -0.20370
C1182       C  0.89710377  0.43661098  0.00468212    -0.06930
C1183       C  0.92260657  0.45056946  0.97772901     0.13940
C1184       C  0.94012673  0.48066249  0.97748132    -0.20420
C1185       C  0.93382411  0.49722599  0.00532557    -0.06940
C1186       C  0.91016119  0.48283517  0.53591093     0.13930
C1187       C  0.90383746  0.49897496  0.56972004    -0.23770
H1188       H  0.87272276  0.44225282  0.55613049     0.15210
H1189       H  0.95792852  0.49128511  0.95357263     0.15240
C1190       C  0.93205169  0.43404796  0.95011971    -0.23720
H1191       H  0.88551352  0.48412053  0.59246188     0.05450
H1192       H  0.89801197  0.51341185  0.05352729     0.08680
H1193       H  0.92305076  0.51195038  0.58987800     0.08680
H1194       H  0.91723777  0.42339687  0.92281735     0.08660
H1195       H  0.93274715  0.41766995  0.47118502     0.08660
H1196       H  0.95399852  0.44840529  0.93499901     0.05440
C1197       C  0.98555320  0.59145522  0.54595801    -0.20370
C1198       C  0.99691529  0.57672596  0.02459902    -0.06930
C1199       C  0.02763664  0.59296842  0.01812159     0.13940
C1200       C  0.04161775  0.62245051  0.01003106    -0.20420
C1201       C  0.02822303  0.63725251  0.02171541    -0.06940
C1202       C  0.00068103  0.62191389  0.54346273     0.13930
C1203       C  0.98708192  0.63745181  0.56239624    -0.23770
H1204       H  0.96421897  0.57934812  0.56165816     0.15210
H1205       H  0.06452384  0.63450508  0.00106284     0.15240
C1206       C  0.04702277  0.58330407  0.03582975    -0.23720
H1207       H  0.96534877  0.62220734  0.57747686     0.05450
H1208       H  0.98484078  0.65028924  0.03587913     0.08680
H1209       H  0.00075138  0.65202550  0.58840462     0.08680
H1210       H  0.05860891  0.57983781  0.00862016     0.08660
H1211       H  0.03521964  0.56434748  0.55844713     0.08660
H1212       H  0.06376991  0.60020675  0.05659787     0.05440
C1213       C  0.01935451  0.50668086  0.52680802    -0.20370
C1214       C  0.03906912  0.51879446  0.99043623    -0.06930
C1215       C  0.03441373  0.53464165  0.95751002     0.13940
C1216       C  0.01168294  0.53932533  0.96380997    -0.20420
C1217       C  0.99540357  0.53131193  0.00354788    -0.06940
C1218       C  0.99825010  0.51357635  0.53466722     0.13930
C1219       C  0.98132147  0.50377227  0.57788798    -0.23770
H1220       H  0.02207295  0.49380685  0.55143886     0.15210
H1221       H  0.00865832  0.55230741  0.93976437     0.15240
C1222       C  0.05512412  0.55033652  0.91880434    -0.23720
H1223       H  0.99643907  0.51150000  0.60554696     0.05450
H1224       H  0.96800728  0.47992278  0.07971717     0.08680
H1225       H  0.96687422  0.51214100  0.58232072     0.08680
H1226       H  0.05267764  0.53502045  0.89325666     0.08660
H1227       H  0.07769939  0.56283885  0.42994291     0.08660
H1228       H  0.05080663  0.56594225  0.90244961     0.05440
C1229       C  0.09469156  0.74771227  0.60952335    -0.20370
C1230       C  0.09972564  0.72745067  0.59122937    -0.06930
C1231       C  0.12096760  0.72310700  0.60864192     0.13940
C1232       C  0.13710981  0.73961710  0.64401404    -0.20420
C1233       C  0.13263616  0.76055846  0.66233516    -0.06940
C1234       C  0.11067697  0.76432332  0.64483066     0.13930
C1235       C  0.10363783  0.78570469  0.66232153    -0.23770
H1236       H  0.07829647  0.75077168  0.59553367     0.15210
H1237       H  0.15364589  0.73638687  0.65683953     0.15240
C1238       C  0.12701729  0.70152832  0.58918163    -0.23720
H1239       H  0.08539508  0.78479723  0.64505756     0.05450
H1240       H  0.12257613  0.80790463  0.65730011     0.08680
H1241       H  0.09718774  0.78098335  0.69786418     0.08680
H1242       H  0.13361026  0.70709357  0.55378922     0.08660
H1243       H  0.10730036  0.67967824  0.59216043     0.08660
H1244       H  0.14461870  0.70107784  0.60627972     0.05440
C1245       C  0.11156379  0.76613203  0.87724820    -0.20370
C1246       C  0.12767237  0.75688153  0.85380640    -0.06930
C1247       C  0.12426291  0.73006451  0.86645481     0.13940
C1248       C  0.10676377  0.71471640  0.90374009    -0.20420
C1249       C  0.09260999  0.72527370  0.92879056    -0.06940
C1250       C  0.09415704  0.75070409  0.91447985     0.13930
C1251       C  0.07736012  0.76155191  0.93841588    -0.23770
H1252       H  0.11330382  0.78611524  0.86742236     0.15210
H1253       H  0.10519516  0.69497933  0.91471993     0.15240
C1254       C  0.13890514  0.71725964  0.84148967    -0.23720
H1255       H  0.08006671  0.78107678  0.92177520     0.05450
H1256       H  0.08479626  0.76716500  0.97259949     0.08680
H1257       H  0.05400635  0.74466610  0.93941587     0.08680
H1258       H  0.16266547  0.73076592  0.84471132     0.08660
H1259       H  0.13333924  0.71540132  0.80618098     0.08660
H1260       H  0.13196170  0.69538340  0.85444349     0.05440
C1261       C  0.30217261  0.54862590  0.59203338    -0.20370
C1262       C  0.28939661  0.52435847  0.56576883    -0.06930
C1263       C  0.26184007  0.50057237  0.57821253     0.13940
C1264       C  0.24681833  0.50249093  0.61456250    -0.20420
C1265       C  0.25869499  0.52729198  0.63986509    -0.06940
C1266       C  0.28726043  0.55041987  0.62914485     0.13930
C1267       C  0.30239663  0.57691669  0.65644455    -0.23770
H1268       H  0.32354466  0.56656963  0.58264132     0.15210
H1269       H  0.22531846  0.48433957  0.62271051     0.15240
C1270       C  0.24757390  0.47267306  0.55403816    -0.23720
H1271       H  0.32512553  0.59172614  0.64465428     0.05450
H1272       H  0.30275240  0.57069361  0.69133436     0.08680
H1273       H  0.29123543  0.58897391  0.65436825     0.08680
H1274       H  0.26151666  0.47215164  0.52740320     0.08660
H1275       H  0.22738939  0.46893068  0.53942343     0.08660
H1276       H  0.24208045  0.45466740  0.57764189     0.05440
C1277       C  0.26470384  0.49475677  0.88795219    -0.20370
C1278       C  0.28766191  0.52046637  0.90324156    -0.06930
C1279       C  0.29553039  0.54673047  0.88191534     0.13940
C1280       C  0.27960820  0.54678237  0.84622739    -0.20420
C1281       C  0.25564139  0.52114857  0.83147432    -0.06940
C1282       C  0.24848204  0.49459679  0.85242749     0.13930
C1283       C  0.22351693  0.46592571  0.83891276    -0.23770
H1284       H  0.25887586  0.47476187  0.90497850     0.15210
H1285       H  0.28564947  0.56718077  0.83049097     0.15240
C1286       C  0.32046517  0.57475475  0.89741691    -0.23720
H1287       H  0.22151169  0.44782734  0.85911796     0.05450
H1288       H  0.22674908  0.46214615  0.80398730     0.08680
H1289       H  0.20292984  0.46534777  0.84341859     0.08680
H1290       H  0.34058159  0.57424928  0.89558452     0.08660
H1291       H  0.31619334  0.57815446  0.93204692     0.08660
H1292       H  0.32394905  0.59335970  0.87688982     0.05440
C1293       C  0.12965323  0.50066741  0.84621075    -0.20370
C1294       C  0.15642803  0.52630444  0.83735675    -0.06930
C1295       C  0.16557149  0.54948119  0.86638617     0.13940
C1296       C  0.14798587  0.54608034  0.90323893    -0.20420
C1297       C  0.12179447  0.52021210  0.91252217    -0.06940
C1298       C  0.11232904  0.49725189  0.88351200     0.13930
C1299       C  0.08481945  0.46867634  0.89276892    -0.23770
H1300       H  0.12239047  0.48284204  0.82427042     0.15210
H1301       H  0.15498875  0.56363229  0.92571482     0.15240
C1302       C  0.19413829  0.57752713  0.86028430    -0.23720
H1303       H  0.08188768  0.45253651  0.86824946     0.05450
H1304       H  0.06584031  0.47100284  0.89121264     0.08680
H1305       H  0.08535378  0.46017904  0.92596284     0.08680
H1306       H  0.19468896  0.58843145  0.82881332     0.08660
H1307       H  0.21211397  0.57350669  0.86040970     0.08660
H1308       H  0.19779006  0.59255012  0.88717624     0.05440
C1309       C  0.15100180  0.55294080  0.57782041    -0.20370
C1310       C  0.12271320  0.52921807  0.57494367    -0.06930
C1311       C  0.11123254  0.50776718  0.60886516     0.13940
C1312       C  0.12880730  0.50987688  0.64363603    -0.20420
C1313       C  0.15768234  0.53281609  0.64545249    -0.06940
C1314       C  0.16866422  0.55509651  0.61256567     0.13930
C1315       C  0.19935536  0.58037199  0.61218747    -0.23770
H1316       H  0.15969837  0.56928982  0.55158294     0.15210
H1317       H  0.12013912  0.49295653  0.66897179     0.15240
C1318       C  0.08105039  0.48176306  0.60726804    -0.23720
H1319       H  0.20444208  0.59492934  0.58296517     0.05450
H1320       H  0.21460379  0.57269110  0.61121901     0.08680
H1321       H  0.20280287  0.59317291  0.64202557     0.08680
H1322       H  0.07859121  0.47021877  0.57628766     0.08660
H1323       H  0.06504464  0.48844996  0.60882331     0.08660
H1324       H  0.07607211  0.46647836  0.63542861     0.05440
C1325       C  0.52410099  0.06096645  0.98653953    -0.20370
C1326       C  0.50635880  0.06631481  0.01385063    -0.06930
C1327       C  0.51937018  0.08749857  0.54624812     0.13940
C1328       C  0.54948885  0.10436815  0.54765732    -0.20420
C1329       C  0.56727420  0.10031993  0.01848577    -0.06940
C1330       C  0.55428973  0.07714289  0.98923045     0.13930
C1331       C  0.57140415  0.06850482  0.96090174    -0.23770
H1332       H  0.51450686  0.04458650  0.96201872     0.15210
H1333       H  0.55915797  0.12185313  0.57044516     0.15240
C1334       C  0.50181828  0.09264617  0.57971923    -0.23720
H1335       H  0.56319306  0.04535945  0.96718962     0.05450
H1336       H  0.59470105  0.08051595  0.96808900     0.08680
H1337       H  0.56883294  0.07190483  0.92553216     0.08680
H1338       H  0.49173250  0.10336686  0.56370981     0.08660
H1339       H  0.48503848  0.07197910  0.59585060     0.08660
H1340       H  0.51547358  0.10697052  0.60603717     0.05440
C1341       C  0.48292948  0.24166072  0.61602479    -0.20370
C1342       C  0.45786451  0.23012231  0.64341862    -0.06930
C1343       C  0.43449322  0.20174608  0.63605325     0.13940
C1344       C  0.43614709  0.18680258  0.59996264    -0.20420
C1345       C  0.46032909  0.19934862  0.57103238    -0.06940
C1346       C  0.48440301  0.22664144  0.57994229     0.13930
C1347       C  0.51166938  0.23987444  0.55146293    -0.23770
H1348       H  0.50119140  0.26298420  0.62187736     0.15210
H1349       H  0.41794056  0.16561233  0.59313480     0.15240
C1350       C  0.40772023  0.18679508  0.66576905    -0.23720
H1351       H  0.52878959  0.26086809  0.56399623     0.05450
H1352       H  0.50730230  0.24359207  0.51725023     0.08680
H1353       H  0.52004247  0.22524203  0.55106113     0.08680
H1354       H  0.39542661  0.19767838  0.66293499     0.08660
H1355       H  0.41381732  0.18677860  0.70047812     0.08660
H1356       H  0.39298259  0.16406200  0.65677574     0.05440
C1357       C  0.48019764  0.22004898  0.89248719    -0.20370
C1358       C  0.45370343  0.19683279  0.90837443    -0.06930
C1359       C  0.42824072  0.18952441  0.88667573     0.13940
C1360       C  0.42977723  0.20624222  0.84993040    -0.20420
C1361       C  0.45624327  0.23034578  0.83441973    -0.06940
C1362       C  0.48198362  0.23692574  0.85585930     0.13930
C1363       C  0.51148631  0.26187308  0.84163834    -0.23770
H1364       H  0.49959051  0.22539204  0.90971878     0.15210
H1365       H  0.40997365  0.20069073  0.83389110     0.15240
C1366       C  0.39940015  0.16463371  0.90316581    -0.23720
H1367       H  0.52874918  0.26331456  0.86238817     0.05450
H1368       H  0.51214051  0.28240200  0.84467995     0.08680
H1369       H  0.51668466  0.25924711  0.80710218     0.08680
H1370       H  0.39503513  0.16820357  0.93765847     0.08660
H1371       H  0.39953674  0.14443242  0.90214201     0.08660
H1372       H  0.38150846  0.16199397  0.88274625     0.05440
C1373       C  0.44269216  0.07119084  0.02228863    -0.20370
C1374       C  0.46353127  0.07060363  0.99495196    -0.06930
C1375       C  0.47748505  0.09206480  0.46101429     0.13940
C1376       C  0.47390609  0.11562179  0.46015166    -0.20420
C1377       C  0.45484285  0.11728059  0.99006550    -0.06940
C1378       C  0.43748946  0.09368173  0.01938436     0.13930
C1379       C  0.41310154  0.09162755  0.04714816    -0.23770
H1380       H  0.43177215  0.05535120  0.04826668     0.15210
H1381       H  0.48636100  0.13296869  0.43608364     0.15240
C1382       C  0.49618413  0.09071637  0.42503868    -0.23720
H1383       H  0.40007019  0.07030619  0.06441243     0.05450
H1384       H  0.39845623  0.09447842  0.02571684     0.08680
H1385       H  0.42138410  0.10803124  0.57284066     0.08680
H1386       H  0.49422050  0.06953434  0.92454142     0.08660
H1387       H  0.51909703  0.10795113  0.42911662     0.08660
H1388       H  0.48915658  0.09382437  0.39242278     0.05440
C1389       C  0.24681177  0.89224781  0.91600629    -0.20370
C1390       C  0.27336018  0.89439239  0.92127331    -0.06930
C1391       C  0.28199087  0.88046100  0.89146760     0.13940
C1392       C  0.26355524  0.86417611  0.85786118    -0.20420
C1393       C  0.23661469  0.86139602  0.85302822    -0.06940
C1394       C  0.22831355  0.87604168  0.88236007     0.13930
C1395       C  0.19954774  0.87379843  0.88016123    -0.23770
H1396       H  0.24014338  0.90263220  0.93941060     0.15210
H1397       H  0.27020827  0.85335551  0.83534081     0.15240
C1398       C  0.31020623  0.88192320  0.89565092    -0.23720
H1399       H  0.19624879  0.88527102  0.90736553     0.05450
H1400       H  0.18174197  0.85088353  0.88291536     0.08680
H1401       H  0.19834633  0.88366346  0.84870083     0.08680
H1402       H  0.31181138  0.87476885  0.92933460     0.08660
H1403       H  0.32813883  0.90429150  0.88873549     0.08660
H1404       H  0.31255140  0.86808984  0.87162049     0.05440
C1405       C  0.28412833  0.87867333  0.61334651    -0.20370
C1406       C  0.27457141  0.89201257  0.58465123    -0.06930
C1407       C  0.24937913  0.89221290  0.59628250     0.13940
C1408       C  0.23298369  0.87678668  0.63408661    -0.20420
C1409       C  0.24139616  0.86174813  0.66155749    -0.06940
C1410       C  0.26804332  0.86368758  0.65181713     0.13930
C1411       C  0.27999627  0.85033479  0.68152118    -0.23770
H1412       H  0.30382427  0.87917454  0.60479367     0.15210
H1413       H  0.21311623  0.87618494  0.64161201     0.15240
C1414       C  0.23928039  0.90875479  0.57002337    -0.23720
H1415       H  0.30207788  0.85623322  0.67045343     0.05450
H1416       H  0.26614857  0.82654746  0.68134162     0.08680
H1417       H  0.28131770  0.85796578  0.71563269     0.08680
H1418       H  0.21799288  0.89354036  0.55601239     0.08660
H1419       H  0.25456271  0.92222538  0.54278030     0.08660
H1420       H  0.23691045  0.92347482  0.59206969     0.05440
C1421       C  0.37627090  0.97967973  0.53912575    -0.20370
C1422       C  0.36493555  0.96532995  0.99932323    -0.06930
C1423       C  0.38450501  0.97432987  0.96197709     0.13940
C1424       C  0.41297151  0.99754342  0.96555519    -0.20420
C1425       C  0.42484876  0.00738811  0.00671648    -0.06940
C1426       C  0.40598369  0.99844242  0.54417947     0.13930
C1427       C  0.41618545  0.00796182  0.59012209    -0.23770
H1428       H  0.36230366  0.97551431  0.56773034     0.15210
H1429       H  0.42680027  0.00599075  0.93617856     0.15240
C1430       C  0.37818682  0.95768153  0.92027227    -0.23720
H1431       H  0.41187309  0.98915750  0.61091604     0.05450
H1432       H  0.40431169  0.01741154  0.10496473     0.08680
H1433       H  0.43945587  0.02460308  0.59048931     0.08680
H1434       H  0.36650689  0.96349412  0.89706036     0.08660
H1435       H  0.36644677  0.93436647  0.42855322     0.08660
H1436       H  0.39841536  0.96267656  0.90240230     0.05440
C1437       C  0.44317527  0.82555648  0.63292016    -0.20370
C1438       C  0.46520671  0.83928591  0.66338901    -0.06930
C1439       C  0.48537540  0.86920977  0.65798943     0.13940
C1440       C  0.48477290  0.88379140  0.61997197    -0.20420
C1441       C  0.46394081  0.86955717  0.58804042    -0.06940
C1442       C  0.44204942  0.84036959  0.59566678     0.13930
C1443       C  0.41724613  0.82422727  0.56528678    -0.23770
H1444       H  0.42711928  0.80282153  0.63745198     0.15210
H1445       H  0.50120539  0.90635385  0.61467696     0.15240
C1446       C  0.50739656  0.88666329  0.69176441    -0.23720
H1447       H  0.39650617  0.81513319  0.58444128     0.05450
H1448       H  0.41830422  0.80635209  0.55046025     0.08680
H1449       H  0.41711124  0.83806872  0.53837530     0.08680
H1450       H  0.50447771  0.87444947  0.72285482     0.08660
H1451       H  0.50538577  0.90516312  0.70072841     0.08660
H1452       H  0.52947767  0.89499658  0.67765509     0.05440
C1453       C  0.45945110  0.86914644  0.89384763    -0.20370
C1454       C  0.48040191  0.87559225  0.92538365    -0.06930
C1455       C  0.50000076  0.86634050  0.91904271     0.13940
C1456       C  0.49705512  0.84948265  0.88281331    -0.20420
C1457       C  0.47528619  0.84186917  0.85224561    -0.06940
C1458       C  0.45686600  0.85276219  0.85698829     0.13930
C1459       C  0.43489717  0.84842045  0.82355711    -0.23770
H1460       H  0.44463517  0.87656899  0.89841500     0.15210
H1461       H  0.51166888  0.84176702  0.87889350     0.15240
C1462       C  0.52434455  0.87396772  0.94963294    -0.23720
H1463       H  0.41282346  0.83538492  0.83881711     0.05450
H1464       H  0.43603916  0.83783663  0.79344443     0.08680
H1465       H  0.43871626  0.86966048  0.81273117     0.08680
H1466       H  0.52123287  0.85405230  0.96541775     0.08660
H1467       H  0.52601236  0.88859833  0.97589076     0.08660
H1468       H  0.54518827  0.88502705  0.93042275     0.05440
C1469       C  0.48479276  0.97218040  0.53895538    -0.20370
C1470       C  0.47647409  0.95490372  0.00144403    -0.06930
C1471       C  0.46596525  0.96314984  0.96524863     0.13940
C1472       C  0.46437852  0.98777703  0.96804171    -0.20420
C1473       C  0.46831257  0.00217592  0.00764960    -0.06940
C1474       C  0.47962859  0.99473805  0.54343973     0.13930
C1475       C  0.48550960  0.00941462  0.58693071    -0.23770
H1476       H  0.49401602  0.96705825  0.56619676     0.15210
H1477       H  0.45863039  0.99493877  0.93898109     0.15240
C1478       C  0.45358887  0.94531828  0.92483385    -0.23720
H1479       H  0.49539627  0.00142298  0.61018575     0.05450
H1480       H  0.46508588  0.00490743  0.60283807     0.08680
H1481       H  0.50068834  0.03284017  0.58240773     0.08680
H1482       H  0.43933968  0.92219597  0.93428446     0.08660
H1483       H  0.47112305  0.94895810  0.90132608     0.08660
H1484       H  0.44001322  0.95143122  0.90664606     0.05440
C1485       C  0.81777438  0.31835388  0.65058677    -0.20370
C1486       C  0.79033862  0.31456636  0.65805432    -0.06930
C1487       C  0.78038845  0.32718594  0.62765257     0.13940
C1488       C  0.79781459  0.34253469  0.59060219    -0.20420
C1489       C  0.82474946  0.34564823  0.58295419    -0.06940
C1490       C  0.83511483  0.33380564  0.61336454     0.13930
C1491       C  0.86398757  0.33674949  0.60583569    -0.23770
H1492       H  0.82559353  0.30889529  0.67369713     0.15210
H1493       H  0.79021960  0.35188725  0.56684922     0.15240
C1494       C  0.75112580  0.32384766  0.63256209    -0.23720
H1495       H  0.86855054  0.32565104  0.63241733     0.05450
H1496       H  0.88141248  0.35981397  0.60499557     0.08680
H1497       H  0.86432505  0.32718252  0.57395298     0.08680
H1498       H  0.74999233  0.33431670  0.66295817     0.08660
H1499       H  0.73390268  0.30068689  0.63385787     0.08660
H1500       H  0.74677414  0.33411008  0.60443218     0.05440
C1501       C  0.81175600  0.31021044  0.86945915    -0.20370
C1502       C  0.79241558  0.31655659  0.84989533    -0.06930
C1503       C  0.79201425  0.34099920  0.86442184     0.13940
C1504       C  0.80949200  0.35698344  0.89930019    -0.20420
C1505       C  0.82726106  0.34931571  0.92019660    -0.06940
C1506       C  0.82903489  0.32617990  0.90432214     0.13930
C1507       C  0.84920270  0.31830809  0.92421017    -0.23770
H1508       H  0.81290588  0.29210161  0.85833210     0.15210
H1509       H  0.80840097  0.37489907  0.91165522     0.15240
C1510       C  0.77325183  0.35052705  0.84409535    -0.23720
H1511       H  0.84870814  0.30032099  0.90686093     0.05450
H1512       H  0.84299447  0.31151737  0.95935997     0.08680
H1513       H  0.87168035  0.33716612  0.92186813     0.08680
H1514       H  0.75009954  0.33383659  0.85019906     0.08660
H1515       H  0.77825921  0.35465688  0.80809574     0.08660
H1516       H  0.77690528  0.37070781  0.85843643     0.05440
C1517       C  0.69539028  0.19049680  0.87771734    -0.20370
C1518       C  0.68688968  0.20785517  0.85657978    -0.06930
C1519       C  0.66110150  0.20611229  0.87185598     0.13940
C1520       C  0.64596150  0.18869267  0.90916568    -0.20420
C1521       C  0.65575185  0.17303327  0.93153067    -0.06940
C1522       C  0.68013755  0.17313701  0.91487775     0.13930
C1523       C  0.68995937  0.15477307  0.93612681    -0.23770
H1524       H  0.71455027  0.19096054  0.86590754     0.15210
H1525       H  0.62688371  0.18804545  0.92200565     0.15240
C1526       C  0.64916056  0.22236861  0.84968256    -0.23720
H1527       H  0.70875998  0.15657148  0.91784677     0.05450
H1528       H  0.67207288  0.13187511  0.93668487     0.08680
H1529       H  0.69648272  0.16150201  0.97036901     0.08680
H1530       H  0.64560889  0.21682355  0.81435887     0.08660
H1531       H  0.66425260  0.24585809  0.85278802     0.08660
H1532       H  0.62809039  0.21694758  0.86494390     0.05440
C1533       C  0.64762598  0.18991174  0.61446797    -0.20370
C1534       C  0.65631633  0.17259970  0.59465195    -0.06930
C1535       C  0.67994600  0.17198493  0.61114937     0.13940
C1536       C  0.69501974  0.18948686  0.64638244    -0.20420
C1537       C  0.68733480  0.20803892  0.66541470    -0.06940
C1538       C  0.66278408  0.20775740  0.64941516     0.13930
C1539       C  0.65231025  0.22622007  0.66807829    -0.23770
H1540       H  0.62940152  0.19019184  0.60133970     0.15210
H1541       H  0.71341272  0.18907763  0.65831324     0.15240
C1542       C  0.68926034  0.15287791  0.59145616    -0.23720
H1543       H  0.63238440  0.22229826  0.65223581     0.05450
H1544       H  0.66902757  0.24930690  0.66228053     0.08680
H1545       H  0.64717060  0.22132931  0.70393970     0.08680
H1546       H  0.69598099  0.15913108  0.55627626     0.08660
H1547       H  0.67101831  0.13014824  0.59382713     0.08660
H1548       H  0.70776734  0.15446004  0.60885260     0.05440
loop_ 
_geom_bond_atom_site_label_1 
_geom_bond_atom_site_label_2 
_geom_bond_distance 
_geom_bond_site_symmetry_2 
_ccdc_geom_bond_type 
O1           Ni9   1.920       .  S
O1           C11   1.281       .  A
O2           Ni9   1.919       .  S
O2           C12   1.281       .  A
O3           Ni9   1.911       .  S
O3           C13   1.279       .  A
O4           Ni9   1.909       .  S
O4           C14   1.279       .  A
O5          Ni10   1.914       .  S
O5           C14   1.281       .  A
O6          Ni10   1.915       .  S
O6           C13   1.282       .  A
O7          Ni10   1.919       .  S
O7           C12   1.283       .  A
O8          Ni10   1.921       .  S
O8           C11   1.283       .  A
Ni9         Ni10   2.379       .  S
C11         C728   1.499       .  S
C12         C763   1.498       .  S
C13         C744   1.491       .  S
C14         C712   1.483       .  S
C15         C696   1.506       .  S
C15          C16   1.412       .  A
C15         C794   1.414       .  A
C16          C17   1.402       .  A
C16          H21   1.077       .  S
C17         C680   1.481       .  S
C17          C18   1.397       .  A
C18         C793   1.399       .  A
C18          H22   1.084       .  S
C19         C667   1.482       .  S
C19          C20   1.403       .  A
C19         C792   1.399       .  A
C20         C789   1.414       .  A
C20          H23   1.083       .  S
C24         C648   1.517       .  S
C24          C29   1.417       .  A
C24         C799   1.419       .  A
C25          C26   1.400       .  A
C25         C798   1.418   1_554  A
C25          H30   1.080       .  S
C26         C632   1.481       .  S
C26         C801   1.395       .  A
C27          C28   1.396       .  A
C27         C800   1.395       .  A
C27          H31   1.084       .  S
C28         C616   1.483       .  S
C28          C29   1.405       .  A
C29          H32   1.073       .  S
C33         C603   1.486       .  S
C33          C34   1.407       .  A
C33         C812   1.409       .  A
C34          C35   1.401       .  A
C34          H39   1.084       .  S
C35         C584   1.474       .  S
C35          C36   1.398       .  A
C36         C811   1.398       .  A
C36          H40   1.084       .  S
C37         C571   1.478       .  S
C37          C38   1.401       .  A
C37         C810   1.398   1_554  A
C38         C807   1.409   1_554  A
C38          H41   1.082       .  S
C42         C555   1.488       .  S
C42          C47   1.407       .  A
C42         C817   1.410       .  A
C43          C44   1.402       .  A
C43         C816   1.410       .  A
C43          H48   1.084       .  S
C44         C760   1.478       .  S
C44         C819   1.398       .  A
C45          C46   1.399       .  A
C45         C818   1.398       .  A
C45          H49   1.084       .  S
C46         C747   1.475       .  S
C46          C47   1.400       .  A
C47          H50   1.084       .  S
C51          C52   1.369       .  D
C51         C651   1.497       .  S
C51         C699   1.508       .  S
C52         C552   1.498       .  S
C52         C600   1.507       .  S
O53         Ni61   1.921       .  S
O53          C63   1.283       .  A
O54         Ni61   1.923       .  S
O54          C64   1.282       .  A
O55         Ni61   1.915       .  S
O55          C65   1.280       .  A
O56         Ni61   1.918       .  S
O56          C66   1.280       .  A
O57         Ni62   1.911       .  S
O57          C66   1.282       .  A
O58         Ni62   1.911       .  S
O58          C65   1.281       .  A
O59         Ni62   1.915       .  S
O59          C64   1.281       .  A
O60         Ni62   1.912       .  S
O60          C63   1.279       .  A
Ni61        Ni62   2.380       .  S
C63         C507   1.495       .  S
C64         C539   1.489       .  S
C65         C520   1.488       .  S
C66         C491   1.489       .  S
O67         Ni75   1.903       .  S
O67          C77   1.276       .  A
O68         Ni75   1.905       .  S
O68          C78   1.277       .  A
O69         Ni75   1.923       .  S
O69          C79   1.284       .  A
O70         Ni75   1.926       .  S
O70          C80   1.284       .  A
O71         Ni76   1.910       .  S
O71          C80   1.278       .  A
O72         Ni76   1.908       .  S
O72          C79   1.278       .  A
O73         Ni76   1.927       .  S
O73          C78   1.285       .  A
O74         Ni76   1.928       .  S
O74          C77   1.285       .  A
Ni75        Ni76   2.379       .  S
C77         C459   1.494       .  S
C78         C619   1.488       .  S
C79         C635   1.489       .  S
C80         C472   1.494       .  S
C81         C440   1.495       .  S
C81          C86   1.405       .  A
C81         C856   1.414       .  A
C82          C83   1.403       .  A
C82         C855   1.414   1_554  A
C82          H87   1.083       .  S
C83         C536   1.484       .  S
C83         C858   1.398   1_554  A
C84          C85   1.399       .  A
C84         C857   1.398       .  A
C84          H88   1.084       .  S
C85         C523   1.478       .  S
C85          C86   1.399       .  A
C86          H89   1.076       .  S
C90         C427   1.475       .  S
C90          C91   1.410       .  A
C90         C869   1.402       .  A
C91          C92   1.405       .  A
C91          H96   1.084       .  S
C92         C475   1.482       .  S
C92          C93   1.401       .  A
C93         C868   1.398       .  A
C93          H97   1.084       .  S
C94         C456   1.472       .  S
C94          C95   1.398       .  A
C94         C867   1.398       .  A
C95         C864   1.402       .  A
C95          H98   1.084       .  S
C99         C408   1.488       .  S
C99         C100   1.412       .  A
C99         C878   1.405       .  A
C100        C101   1.405       .  A
C100        H105   1.082       .  S
C101        C731   1.482       .  S
C101        C102   1.398       .  A
C102        C877   1.397       .  A
C102        H106   1.085       .  S
C103        C715   1.471       .  S
C103        C104   1.397       .  A
C103        C876   1.397       .  A
C104        C873   1.405       .  A
C104        H107   1.084       .  S
C108        C392   1.481       .  S
C108        C113   1.402       .  A
C108        C883   1.410       .  A
C109        C110   1.408       .  A
C109        C882   1.410   1_554  A
C109        H114   1.084       .  S
C110        C376   1.484       .  S
C110        C885   1.402   1_554  A
C111        C112   1.399       .  A
C111        C884   1.402       .  A
C111        H115   1.084       .  S
C112        C360   1.477       .  S
C112        C113   1.398       .  A
C113        H116   1.084       .  S
C117        C118   1.397       .  D
C117        C424   1.533       .  S
C117        C443   1.492       .  S
C118        C395   1.543       .  S
C118        C411   1.512       .  S
O119       Ni127   1.912       .  S
O119        C129   1.281       .  A
O120       Ni127   1.913       .  S
O120        C130   1.280       .  A
O121       Ni127   1.922       .  S
O121        C131   1.283       .  A
O122       Ni127   1.922       .  S
O122        C132   1.282       .  A
O123       Ni128   1.916       .  S
O123        C132   1.281       .  A
O124       Ni128   1.912       .  S
O124        C131   1.279       .  A
O125       Ni128   1.921       .  S
O125        C130   1.283       .  A
O126       Ni128   1.919       .  S
O126        C129   1.281       .  A
Ni127      Ni128   2.379       .  S
C129        C331   1.492       .  S
C130        C568   1.491       .  S
C131        C587   1.495       .  S
C132        C344   1.489       .  S
O133       Ni141   1.924       .  S
O133        C143   1.283       .  A
O134       Ni141   1.922       .  S
O134        C144   1.282       .  A
O135       Ni141   1.921       .  S
O135        C145   1.282       .  A
O136       Ni141   1.920       .  S
O136        C146   1.282       .  A
O137       Ni142   1.909       .  S
O137        C146   1.280       .  A
O138       Ni142   1.910       .  S
O138        C145   1.281       .  A
O139       Ni142   1.917       .  S
O139        C144   1.281       .  A
O140       Ni142   1.918       .  S
O140        C143   1.281       .  A
Ni141      Ni142   2.382       .  S
C143        C379   1.493       .  S
C144        C312   1.490       .  S
C145        C296   1.491       .  S
C146        C363   1.480       .  S
O147       Ni155   1.925       .  S
O147        C157   1.284       .  A
O148       Ni155   1.923       .  S
O148        C158   1.283       .  A
O149       Ni155   1.908       .  S
O149        C159   1.279       .  A
O150       Ni155   1.906       .  S
O150        C160   1.280       .  A
O151       Ni156   1.926       .  S
O151        C160   1.283       .  A
O152       Ni156   1.928       .  S
O152        C159   1.284       .  A
O153       Ni156   1.913       .  S
O153        C158   1.280       .  A
O154       Ni156   1.913       .  S
O154        C157   1.279       .  A
Ni155      Ni156   2.385       .  S
C157        C264   1.490       .  S
C158        C664   1.481       .  S
C159        C683   1.481       .  S
C160        C283   1.489       .  S
C161        C248   1.504       .  S
C161        C162   1.414       .  A
C161        C940   1.416       .  A
C162        C163   1.401       .  A
C162        H167   1.081       .  S
C163        C504   1.472       .  S
C163        C164   1.394       .  A
C164        C939   1.396       .  A
C164        H168   1.085       .  S
C165        C488   1.477       .  S
C165        C166   1.400       .  A
C165        C938   1.396   1_554  A
C166        C935   1.416   1_554  A
C166        H169   1.081       .  S
C170        C232   1.502       .  S
C170        C175   1.417       .  A
C170        C945   1.409       .  A
C171        C172   1.402       .  A
C171        C944   1.409       .  A
C171        H176   1.077       .  S
C172        C280   1.478       .  S
C172        C947   1.397       .  A
C173        C174   1.397       .  A
C173        C946   1.397       .  A
C173        H177   1.084       .  S
C174        C267   1.482       .  S
C174        C175   1.402       .  A
C175        H178   1.083       .  S
C179        C216   1.498       .  S
C179        C184   1.407       .  A
C179        C954   1.416       .  A
C180        C181   1.403       .  A
C180        C953   1.416   1_554  A
C180        H185   1.083       .  S
C181        C347   1.481       .  S
C181        C956   1.398   1_554  A
C182        C183   1.396       .  A
C182        C955   1.398       .  A
C182        H186   1.084       .  S
C183        C328   1.472       .  S
C183        C184   1.399       .  A
C184        H187   1.079       .  S
C188        C203   1.508       .  S
C188        C189   1.419       .  A
C188        C967   1.414       .  A
C189        C190   1.404       .  A
C189        H194   1.078       .  S
C190        C315   1.485       .  S
C190        C191   1.397       .  A
C191        C966   1.394       .  A
C191        H195   1.085       .  S
C192        C299   1.473       .  S
C192        C193   1.400       .  A
C192        C965   1.394       .  A
C193        C962   1.414       .  A
C193        H196   1.081       .  S
C197        C198   1.372       .  D
C197        C235   1.502       .  S
C197        C251   1.502       .  S
C198        C200   1.502       .  S
C198        C219   1.500       .  S
C199        C204   1.399       .  A
C199        C974   1.405   1_556  A
C199        H206   1.073       .  S
C200        C201   1.411       .  A
C200        C973   1.405       .  A
C201        C202   1.405       .  A
C201        C208   1.500       .  S
C202        C203   1.413       .  A
C202        H207   1.081       .  S
C203        C978   1.419       .  A
C204        C977   1.419   1_556  A
C204        C205   1.508       .  S
C205        H209   1.111       .  S
C205        H211   1.108       .  S
C205        H984   1.111       .  S
C208        H212   1.109       .  S
C208        H214   1.111       .  S
C208        H987   1.107       .  S
H210        C979   1.111       .  S
H213        C982   1.107       .  S
C215        C220   1.401       .  A
C215        C990   1.404   1_554  A
C215        H222   1.085       .  S
C216        C217   1.422       .  A
C216        C989   1.404       .  A
C217        C218   1.405       .  A
C217        C224   1.510       .  S
C218        C219   1.404       .  A
C218        H223   1.082       .  S
C219        C994   1.419       .  A
C220        C993   1.419   1_554  A
C220        C221   1.500       .  S
C221        H225   1.111       .  S
C221        H227   1.095       .  S
C221       H1000   1.110       .  S
C224        H228   1.107       .  S
C224        H230   1.111       .  S
C224       H1003   1.110       .  S
H226        C995   1.110       .  S
H229        C998   1.110       .  S
C231        C232   1.405       .  A
C231        C236   1.401       .  A
C231        H238   1.084       .  S
C232       C1007   1.423       .  A
C233        C234   1.406       .  A
C233       C1006   1.423       .  A
C233        C240   1.510       .  S
C234       C1009   1.405       .  A
C234        H239   1.082       .  S
C235        C236   1.419       .  A
C235       C1008   1.405       .  A
C236        C237   1.499       .  S
C237        H241   1.111       .  S
C237        H242   1.093       .  S
C237        H243   1.110       .  S
C240        H244   1.110       .  S
C240        H245   1.107       .  S
C240        H246   1.111       .  S
C247        C252   1.403       .  A
C247       C1022   1.411       .  A
C247        H254   1.081       .  S
C248        C249   1.419       .  A
C248       C1021   1.411       .  A
C249        C250   1.399       .  A
C249        C256   1.508       .  S
C250        C251   1.404       .  A
C250        H255   1.073       .  S
C251       C1026   1.411       .  A
C252       C1025   1.411       .  A
C252        C253   1.500       .  S
C253        H257   1.111       .  S
C253        H259   1.110       .  S
C253       H1032   1.107       .  S
C256        H260   1.108       .  S
C256        H262   1.111       .  S
C256       H1035   1.111       .  S
H258       C1027   1.107       .  S
H261       C1030   1.111       .  S
C263        C264   1.405       .  A
C263        C268   1.402       .  A
C263        H270   1.084       .  S
C264        C265   1.422       .  A
C265        C266   1.407       .  A
C265        C272   1.508       .  S
C266        C267   1.401       .  A
C266        H271   1.084       .  S
C267        C268   1.414       .  A
C268        C269   1.508       .  S
C269        H273   1.110       .  S
C269        H274   1.108       .  S
C269        H275   1.110       .  S
C272        H276   1.111       .  S
C272        H277   1.109       .  S
C272        H278   1.111       .  S
C279        C280   1.402       .  A
C279        C284   1.404       .  A
C279        H286   1.084       .  S
C280        C281   1.408       .  A
C281        C282   1.402       .  A
C281        C288   1.507       .  S
C282        C283   1.410       .  A
C282        H287   1.084       .  S
C283        C284   1.418       .  A
C284        C285   1.507       .  S
C285        H289   1.111       .  S
C285        H290   1.111       .  S
C285        H291   1.110       .  S
C288        H292   1.111       .  S
C288        H293   1.109       .  S
C288        H294   1.111       .  S
C295        C296   1.410       .  A
C295        C300   1.401       .  A
C295        H302   1.083       .  S
C296        C297   1.422       .  A
C297        C298   1.406       .  A
C297        C304   1.508       .  S
C298        C299   1.399       .  A
C298        H303   1.084       .  S
C299        C300   1.406       .  A
C300        C301   1.507       .  S
C301        H305   1.111       .  S
C301        H306   1.110       .  S
C301        H307   1.110       .  S
C304        H308   1.111       .  S
C304        H309   1.110       .  S
C304        H310   1.111       .  S
C311        C312   1.410       .  A
C311        C316   1.409       .  A
C311        H318   1.084       .  S
C312        C313   1.419       .  A
C313        C314   1.401       .  A
C313        C320   1.509       .  S
C314        C315   1.402       .  A
C314        H319   1.085       .  S
C315        C316   1.412       .  A
C316        C317   1.506       .  S
C317        H321   1.111       .  S
C317        H322   1.108       .  S
C317        H323   1.110       .  S
C320        H324   1.109       .  S
C320        H325   1.111       .  S
C320        H326   1.111       .  S
C327        C328   1.399       .  A
C327        C332   1.404       .  A
C327        H334   1.085       .  S
C328        C329   1.405       .  A
C329        C330   1.402       .  A
C329        C336   1.506       .  S
C330        C331   1.411       .  A
C330        H335   1.083       .  S
C331        C332   1.422       .  A
C332        C333   1.508       .  S
C333        H337   1.111       .  S
C333        H338   1.110       .  S
C333        H339   1.110       .  S
C336        H340   1.110       .  S
C336        H341   1.110       .  S
C336        H342   1.111       .  S
C343        C344   1.407       .  A
C343        C348   1.402       .  A
C343        H350   1.084       .  S
C344        C345   1.419       .  A
C345        C346   1.407       .  A
C345        C352   1.508       .  S
C346        C347   1.402       .  A
C346        H351   1.084       .  S
C347        C348   1.413       .  A
C348        C349   1.508       .  S
C349        H353   1.111       .  S
C349        H354   1.108       .  S
C349        H355   1.110       .  S
C352        H356   1.111       .  S
C352        H357   1.109       .  S
C352        H358   1.111       .  S
C359        C360   1.403       .  A
C359        C364   1.404       .  A
C359        H366   1.085       .  S
C360        C361   1.413       .  A
C361        C362   1.399       .  A
C361        C368   1.509       .  S
C362        C363   1.405       .  A
C362        H367   1.085       .  S
C363        C364   1.418       .  A
C364        C365   1.508       .  S
C365        H369   1.110       .  S
C365        H370   1.111       .  S
C365        H371   1.106       .  S
C368        H372   1.107       .  S
C368        H373   1.110       .  S
C368        H374   1.111       .  S
C375        C376   1.401       .  A
C375        C380   1.408       .  A
C375        H382   1.084       .  S
C376        C377   1.415       .  A
C377        C378   1.403       .  A
C377        C384   1.508       .  S
C378        C379   1.406       .  A
C378        H383   1.084       .  S
C379        C380   1.422       .  A
C380        C381   1.508       .  S
C381        H385   1.111       .  S
C381        H386   1.111       .  S
C381        H387   1.109       .  S
C384        H388   1.108       .  S
C384        H389   1.110       .  S
C384        H390   1.110       .  S
C391        C392   1.396       .  A
C391        C396   1.399       .  A
C391        H398   1.085       .  S
C392       C1167   1.410       .  A
C393        C394   1.411       .  A
C393       C1166   1.410       .  A
C393        C400   1.505   1_556  S
C394       C1169   1.406       .  A
C394        H399   1.065       .  S
C395        C396   1.428       .  A
C395       C1168   1.406       .  A
C396        C397   1.504       .  S
C397        H401   1.111       .  S
C397        H403   1.108       .  S
C397       H1176   1.110       .  S
C400        H404   1.110       .  S
C400        H406   1.109       .  S
C400       H1179   1.110   1_554  S
H402       C1171   1.110       .  S
H405       C1174   1.110       .  S
C407        C412   1.401       .  A
C407       C1182   1.406       .  A
C407        H414   1.084       .  S
C408        C409   1.414       .  A
C408       C1181   1.406       .  A
C409        C410   1.403       .  A
C409        C416   1.508       .  S
C410        C411   1.410       .  A
C410        H415   1.081       .  S
C411       C1186   1.415       .  A
C412       C1185   1.415       .  A
C412        C413   1.510       .  S
C413        H417   1.111       .  S
C413        H419   1.109       .  S
C413       H1192   1.107       .  S
C416        H420   1.106       .  S
C416        H422   1.111       .  S
C416       H1195   1.110       .  S
H418       C1187   1.107       .  S
H421       C1190   1.110       .  S
C423        C428   1.418   1_655  A
C423       C1198   1.405       .  A
C423        H430   1.083       .  S
C424        C425   1.430   1_655  A
C424       C1197   1.405       .  A
C425        C426   1.389       .  A
C425        C432   1.512       .  S
C426        C427   1.390       .  A
C426        H431   1.086       .  S
C427       C1202   1.416       .  A
C428       C1201   1.416       .  A
C428        C429   1.503   1_455  S
C429        H433   1.110       .  S
C429        H435   1.109   1_655  S
C429       H1208   1.110       .  S
C432        H436   1.106       .  S
C432        H438   1.112       .  S
C432       H1211   1.104       .  S
H434       C1203   1.110       .  S
H437       C1206   1.104       .  S
C439        C444   1.402   1_455  A
C439       C1214   1.410   1_554  A
C439        H446   1.084       .  S
C440        C441   1.425       .  A
C440       C1213   1.410       .  A
C441        C442   1.400       .  A
C441        C448   1.511       .  S
C442        C443   1.400   1_455  A
C442        H447   1.085       .  S
C443       C1218   1.412       .  A
C444       C1217   1.412       .  A
C444        C445   1.505       .  S
C445        H449   1.110       .  S
C445        H451   1.106       .  S
C445       H1224   1.110       .  S
C448        H452   1.107       .  S
C448        H454   1.111       .  S
C448       H1227   1.110       .  S
H450       C1219   1.110       .  S
H453       C1222   1.110       .  S
C455        C456   1.394       .  A
C455        C460   1.402       .  A
C455        H462   1.085       .  S
C456        C457   1.409       .  A
C457        C458   1.404       .  A
C457        C464   1.507       .  S
C458        C459   1.410       .  A
C458        H463   1.083       .  S
C459        C460   1.427       .  A
C460        C461   1.509       .  S
C461        H465   1.111       .  S
C461        H466   1.110       .  S
C461        H467   1.110       .  S
C464        H468   1.110       .  S
C464        H469   1.110       .  S
C464        H470   1.111       .  S
C471        C472   1.408       .  A
C471        C476   1.404       .  A
C471        H478   1.083       .  S
C472        C473   1.424       .  A
C473        C474   1.406       .  A
C473        C480   1.509       .  S
C474        C475   1.400       .  A
C474        H479   1.084       .  S
C475        C476   1.410       .  A
C476        C477   1.507       .  S
C477        H481   1.111       .  S
C477        H482   1.109       .  S
C477        H483   1.110       .  S
C480        H484   1.109       .  S
C480        H485   1.111       .  S
C480        H486   1.111       .  S
C487        C488   1.401       .  A
C487        C492   1.409       .  A
C487        H494   1.084       .  S
C488        C489   1.412       .  A
C489        C490   1.397       .  A
C489        C496   1.510       .  S
C490        C491   1.406       .  A
C490        H495   1.084       .  S
C491        C492   1.422       .  A
C492        C493   1.507       .  S
C493        H497   1.111       .  S
C493        H498   1.111       .  S
C493        H499   1.109       .  S
C496        H500   1.108       .  S
C496        H501   1.110       .  S
C496        H502   1.111       .  S
C503        C504   1.396       .  A
C503        C508   1.405       .  A
C503        H510   1.084       .  S
C504        C505   1.407       .  A
C505        C506   1.402       .  A
C505        C512   1.507       .  S
C506        C507   1.410       .  A
C506        H511   1.083       .  S
C507        C508   1.426       .  A
C508        C509   1.508       .  S
C509        H513   1.111       .  S
C509        H514   1.110       .  S
C509        H515   1.110       .  S
C512        H516   1.110       .  S
C512        H517   1.110       .  S
C512        H518   1.111       .  S
C519        C520   1.409       .  A
C519        C524   1.403       .  A
C519        H526   1.084       .  S
C520        C521   1.420       .  A
C521        C522   1.401       .  A
C521        C528   1.509       .  S
C522        C523   1.401       .  A
C522        H527   1.085       .  S
C523        C524   1.410       .  A
C524        C525   1.507       .  S
C525        H529   1.111       .  S
C525        H530   1.108       .  S
C525        H531   1.110       .  S
C528        H532   1.110       .  S
C528        H533   1.110       .  S
C528        H534   1.111       .  S
C535        C536   1.404       .  A
C535        C540   1.406       .  A
C535        H542   1.084       .  S
C536        C537   1.412       .  A
C537        C538   1.404       .  A
C537        C544   1.507       .  S
C538        C539   1.407       .  A
C538        H543   1.084       .  S
C539        C540   1.418       .  A
C540        C541   1.507       .  S
C541        H545   1.111       .  S
C541        H546   1.111       .  S
C541        H547   1.110       .  S
C544        H548   1.110       .  S
C544        H549   1.109       .  S
C544        H550   1.111       .  S
C551        C552   1.406       .  A
C551        C556   1.403       .  A
C551        H558   1.083       .  S
C552       C1327   1.417       .  A
C553        C554   1.398       .  A
C553       C1326   1.417       .  A
C553        C560   1.508       .  S
C554       C1329   1.402       .  A
C554        H559   1.084       .  S
C555        C556   1.418       .  A
C555       C1328   1.402       .  A
C556        C557   1.507       .  S
C557        H561   1.111       .  S
C557        H562   1.108       .  S
C557        H563   1.110       .  S
C560        H564   1.106       .  S
C560        H565   1.110       .  S
C560        H566   1.111       .  S
C567        C568   1.408       .  A
C567        C572   1.404       .  A
C567        H574   1.084       .  S
C568        C569   1.422       .  A
C569        C570   1.405       .  A
C569        C576   1.508       .  S
C570        C571   1.399       .  A
C570        H575   1.084       .  S
C571        C572   1.410       .  A
C572        C573   1.507       .  S
C573        H577   1.111       .  S
C573        H578   1.109       .  S
C573        H579   1.110       .  S
C576        H580   1.109       .  S
C576        H581   1.111       .  S
C576        H582   1.111       .  S
C583        C584   1.397       .  A
C583        C588   1.403       .  A
C583        H590   1.085       .  S
C584        C585   1.406       .  A
C585        C586   1.404       .  A
C585        C592   1.506       .  S
C586        C587   1.411       .  A
C586        H591   1.083       .  S
C587        C588   1.425       .  A
C588        C589   1.509       .  S
C589        H593   1.111       .  S
C589        H594   1.110       .  S
C589        H595   1.110       .  S
C592        H596   1.110       .  S
C592        H597   1.110       .  S
C592        H598   1.111       .  S
C599        C600   1.405       .  A
C599        C604   1.403       .  A
C599        H606   1.070       .  S
C600       C1375   1.417       .  A
C601        C602   1.401       .  A
C601       C1374   1.417       .  A
C601        C608   1.506       .  S
C602       C1377   1.403       .  A
C602        H607   1.084       .  S
C603        C604   1.414       .  A
C603       C1376   1.403       .  A
C604        C605   1.509       .  S
C605        H609   1.111       .  S
C605        H610   1.110       .  S
C605       H1385   1.106       .  S
C608        H613   1.110       .  S
C608        H614   1.111       .  S
C608       H1386   1.107       .  S
H611       C1379   1.106       .  S
H612       C1382   1.107       .  S
C615        C616   1.400       .  A
C615        C620   1.404       .  A
C615        H622   1.084       .  S
C616        C617   1.413       .  A
C617        C618   1.403       .  A
C617        C624   1.504       .  S
C618        C619   1.404       .  A
C618        H623   1.084       .  S
C619        C620   1.422       .  A
C620        C621   1.508       .  S
C621        H625   1.111       .  S
C621        H626   1.111       .  S
C621        H627   1.110       .  S
C624        H628   1.110       .  S
C624        H629   1.105       .  S
C624        H630   1.111       .  S
C631        C632   1.401       .  A
C631        C636   1.405       .  A
C631        H638   1.084       .  S
C632        C633   1.415       .  A
C633        C634   1.400       .  A
C633        C640   1.509       .  S
C634        C635   1.405       .  A
C634        H639   1.084       .  S
C635        C636   1.422       .  A
C636        C637   1.508       .  S
C637        H641   1.111       .  S
C637        H642   1.109       .  S
C637        H643   1.111       .  S
C640        H644   1.110       .  S
C640        H645   1.108       .  S
C640        H646   1.111       .  S
C647        C652   1.401       .  A
C647       C1422   1.415   1_554  A
C647        H654   1.080       .  S
C648        C649   1.429       .  A
C648       C1421   1.415       .  A
C649        C650   1.403       .  A
C649        C656   1.506       .  S
C650        C651   1.398   1_565  A
C650        H655   1.081   1_565  S
C651       C1426   1.411   1_545  A
C652       C1425   1.411   1_565  A
C652        C653   1.507   1_565  S
C653        H657   1.110   1_545  S
C653        H659   1.105       .  S
C653       H1432   1.111       .  S
C656        H660   1.108       .  S
C656        H662   1.111       .  S
C656       H1435   1.108       .  S
H658       C1427   1.111       .  S
H661       C1430   1.108       .  S
C663        C664   1.406       .  A
C663        C668   1.402       .  A
C663        H670   1.085       .  S
C664        C665   1.416       .  A
C665        C666   1.404       .  A
C665        C672   1.508       .  S
C666        C667   1.403       .  A
C666        H671   1.085       .  S
C667        C668   1.414       .  A
C668        C669   1.508       .  S
C669        H673   1.110       .  S
C669        H674   1.110       .  S
C669        H675   1.108       .  S
C672        H676   1.107       .  S
C672        H677   1.111       .  S
C672        H678   1.110       .  S
C679        C680   1.405       .  A
C679        C684   1.406       .  A
C679        H686   1.085       .  S
C680        C681   1.412       .  A
C681        C682   1.402       .  A
C681        C688   1.508       .  S
C682        C683   1.406       .  A
C682        H687   1.085       .  S
C683        C684   1.417       .  A
C684        C685   1.508       .  S
C685        H689   1.110       .  S
C685        H690   1.106       .  S
C685        H691   1.111       .  S
C688        H692   1.110       .  S
C688        H693   1.108       .  S
C688        H694   1.110       .  S
C695        C700   1.410       .  A
C695       C1470   1.413       .  A
C695        H702   1.083       .  S
C696        C697   1.421       .  A
C696       C1469   1.413       .  A
C697        C698   1.398       .  A
C697        C704   1.512       .  S
C698        C699   1.403   1_565  A
C698        H703   1.077       .  S
C699       C1474   1.415   1_545  A
C700       C1473   1.415   1_565  A
C700        C701   1.505   1_565  S
C701        H705   1.111       .  S
C701        H706   1.103       .  S
C701        H707   1.105       .  S
C704        H708   1.110       .  S
C704        H709   1.108       .  S
C704        H710   1.111       .  S
C711        C712   1.409       .  A
C711        C716   1.403       .  A
C711        H718   1.084       .  S
C712        C713   1.420       .  A
C713        C714   1.399       .  A
C713        C720   1.509       .  S
C714        C715   1.398       .  A
C714        H719   1.085       .  S
C715        C716   1.407       .  A
C716        C717   1.506       .  S
C717        H721   1.111       .  S
C717        H722   1.110       .  S
C717        H723   1.110       .  S
C720        H724   1.110       .  S
C720        H725   1.111       .  S
C720        H726   1.111       .  S
C727        C728   1.410       .  A
C727        C732   1.404       .  A
C727        H734   1.083       .  S
C728        C729   1.425       .  A
C729        C730   1.408       .  A
C729        C736   1.508       .  S
C730        C731   1.400       .  A
C730        H735   1.084       .  S
C731        C732   1.410       .  A
C732        C733   1.508       .  S
C733        H737   1.111       .  S
C733        H738   1.109       .  S
C733        H739   1.110       .  S
C736        H740   1.110       .  S
C736        H741   1.110       .  S
C736        H742   1.111       .  S
C743        C744   1.409       .  A
C743        C748   1.401       .  A
C743        H750   1.083       .  S
C744        C745   1.423       .  A
C745        C746   1.404       .  A
C745        C752   1.509       .  S
C746        C747   1.399       .  A
C746        H751   1.084       .  S
C747        C748   1.408       .  A
C748        C749   1.507       .  S
C749        H753   1.111       .  S
C749        H754   1.110       .  S
C749        H755   1.109       .  S
C752        H756   1.111       .  S
C752        H757   1.110       .  S
C752        H758   1.111       .  S
C759        C760   1.399       .  A
C759        C764   1.406       .  A
C759        H766   1.084       .  S
C760        C761   1.407       .  A
C761        C762   1.404       .  A
C761        C768   1.507       .  S
C762        C763   1.411       .  A
C762        H767   1.083       .  S
C763        C764   1.424       .  A
C764        C765   1.508       .  S
C765        H769   1.111       .  S
C765        H770   1.110       .  S
C765        H771   1.110       .  S
C768        H772   1.109       .  S
C768        H773   1.110       .  S
C768        H774   1.111       .  S
O775       Ni783   1.920       .  S
O775        C785   1.281       .  A
O776       Ni783   1.919       .  S
O776        C786   1.281       .  A
O777       Ni783   1.911       .  S
O777        C787   1.279       .  A
O778       Ni783   1.909       .  S
O778        C788   1.279       .  A
O779       Ni784   1.914       .  S
O779        C788   1.281       .  A
O780       Ni784   1.915       .  S
O780        C787   1.282       .  A
O781       Ni784   1.919       .  S
O781        C786   1.283       .  A
O782       Ni784   1.921       .  S
O782        C785   1.283       .  A
Ni783      Ni784   2.379       .  S
C785       C1502   1.499       .  S
C786       C1537   1.498       .  S
C787       C1518   1.491       .  S
C788       C1486   1.483       .  S
C789       C1470   1.506       .  S
C789        C790   1.412   1_554  A
C790        C791   1.402       .  A
C790        H795   1.077       .  S
C791       C1454   1.481       .  S
C791        C792   1.397   1_556  A
C792        H796   1.084       .  S
C793       C1441   1.482       .  S
C793        C794   1.403       .  A
C794        H797   1.083       .  S
C798       C1422   1.517       .  S
C798        C803   1.417       .  A
C799        C800   1.400       .  A
C799        H804   1.080       .  S
C800       C1406   1.481       .  S
C801        C802   1.396   1_554  A
C801        H805   1.084       .  S
C802       C1390   1.483       .  S
C802        C803   1.405       .  A
C803        H806   1.073       .  S
C807       C1377   1.486       .  S
C807        C808   1.407       .  A
C808        C809   1.401       .  A
C808        H813   1.084       .  S
C809       C1358   1.474       .  S
C809        C810   1.398       .  A
C810        H814   1.084       .  S
C811       C1345   1.478       .  S
C811        C812   1.401       .  A
C812        H815   1.082       .  S
C816       C1329   1.488       .  S
C816        C821   1.407   1_554  A
C817        C818   1.402       .  A
C817        H822   1.084       .  S
C818       C1534   1.478       .  S
C819        C820   1.399   1_554  A
C819        H823   1.084       .  S
C820       C1521   1.475       .  S
C820        C821   1.400       .  A
C821        H824   1.084       .  S
C825        C826   1.369       .  D
C825       C1425   1.497       .  S
C825       C1473   1.508       .  S
C826       C1326   1.498       .  S
C826       C1374   1.507   1_554  S
O827       Ni835   1.921       .  S
O827        C837   1.283       .  A
O828       Ni835   1.923       .  S
O828        C838   1.282       .  A
O829       Ni835   1.915       .  S
O829        C839   1.280       .  A
O830       Ni835   1.918       .  S
O830        C840   1.280       .  A
O831       Ni836   1.911       .  S
O831        C840   1.282       .  A
O832       Ni836   1.911       .  S
O832        C839   1.281       .  A
O833       Ni836   1.915       .  S
O833        C838   1.281       .  A
O834       Ni836   1.912       .  S
O834        C837   1.279       .  A
Ni835      Ni836   2.380       .  S
C837       C1281   1.495       .  S
C838       C1313   1.489       .  S
C839       C1294   1.488       .  S
C840       C1265   1.489       .  S
O841       Ni849   1.903       .  S
O841        C851   1.276       .  A
O842       Ni849   1.905       .  S
O842        C852   1.277       .  A
O843       Ni849   1.923       .  S
O843        C853   1.284       .  A
O844       Ni849   1.926       .  S
O844        C854   1.284       .  A
O845       Ni850   1.910       .  S
O845        C854   1.278       .  A
O846       Ni850   1.908       .  S
O846        C853   1.278       .  A
O847       Ni850   1.927       .  S
O847        C852   1.285       .  A
O848       Ni850   1.928       .  S
O848        C851   1.285       .  A
Ni849      Ni850   2.379       .  S
C851       C1233   1.494       .  S
C852       C1393   1.488       .  S
C853       C1409   1.489       .  S
C854       C1246   1.494       .  S
C855       C1214   1.495       .  S
C855        C860   1.405       .  A
C856        C857   1.403       .  A
C856        H861   1.083       .  S
C857       C1310   1.484       .  S
C858        C859   1.399       .  A
C858        H862   1.084       .  S
C859       C1297   1.478       .  S
C859        C860   1.399       .  A
C860        H863   1.076       .  S
C864       C1201   1.475       .  S
C864        C865   1.410   1_554  A
C865        C866   1.405       .  A
C865        H870   1.084       .  S
C866       C1249   1.483       .  S
C866        C867   1.401   1_556  A
C867        H871   1.084       .  S
C868       C1230   1.472       .  S
C868        C869   1.398       .  A
C869        H872   1.084       .  S
C873       C1182   1.488       .  S
C873        C874   1.412   1_554  A
C874        C875   1.405       .  A
C874        H879   1.082       .  S
C875       C1505   1.482       .  S
C875        C876   1.398   1_556  A
C876        H880   1.085       .  S
C877       C1489   1.471       .  S
C877        C878   1.397       .  A
C878        H881   1.084       .  S
C882       C1166   1.481       .  S
C882        C887   1.402       .  A
C883        C884   1.408       .  A
C883        H888   1.084       .  S
C884       C1150   1.484       .  S
C885        C886   1.399       .  A
C885        H889   1.084   1_556  S
C886       C1134   1.477       .  S
C886        C887   1.398       .  A
C887        H890   1.084       .  S
C891        C892   1.397   1_554  D
C891       C1198   1.533       .  S
C891       C1217   1.492       .  S
C892       C1169   1.543       .  S
C892       C1185   1.512   1_556  S
O893       Ni901   1.912       .  S
O893        C903   1.281       .  A
O894       Ni901   1.913       .  S
O894        C904   1.280       .  A
O895       Ni901   1.922       .  S
O895        C905   1.283       .  A
O896       Ni901   1.922       .  S
O896        C906   1.282       .  A
O897       Ni902   1.916       .  S
O897        C906   1.281       .  A
O898       Ni902   1.912       .  S
O898        C905   1.279       .  A
O899       Ni902   1.921       .  S
O899        C904   1.283       .  A
O900       Ni902   1.919       .  S
O900        C903   1.281       .  A
Ni901      Ni902   2.379       .  S
C903       C1105   1.492       .  S
C904       C1342   1.491       .  S
C905       C1361   1.495       .  S
C906       C1118   1.489       .  S
O907       Ni915   1.924       .  S
O907        C917   1.283       .  A
O908       Ni915   1.922       .  S
O908        C918   1.282       .  A
O909       Ni915   1.921       .  S
O909        C919   1.282       .  A
O910       Ni915   1.920       .  S
O910        C920   1.282       .  A
O911       Ni916   1.909       .  S
O911        C920   1.280       .  A
O912       Ni916   1.911       .  S
O912        C919   1.281       .  A
O913       Ni916   1.917       .  S
O913        C918   1.281       .  A
O914       Ni916   1.918       .  S
O914        C917   1.281       .  A
Ni915      Ni916   2.382       .  S
C917       C1153   1.493       .  S
C918       C1086   1.490       .  S
C919       C1070   1.491       .  S
C920       C1137   1.480       .  S
O921       Ni929   1.925       .  S
O921        C931   1.284       .  A
O922       Ni929   1.923       .  S
O922        C932   1.283       .  A
O923       Ni929   1.908       .  S
O923        C933   1.279       .  A
O924       Ni929   1.906       .  S
O924        C934   1.280       .  A
O925       Ni930   1.926       .  S
O925        C934   1.283       .  A
O926       Ni930   1.928       .  S
O926        C933   1.284       .  A
O927       Ni930   1.913       .  S
O927        C932   1.280       .  A
O928       Ni930   1.913       .  S
O928        C931   1.279       .  A
Ni929      Ni930   2.385       .  S
C931       C1038   1.490       .  S
C932       C1438   1.481       .  S
C933       C1457   1.481       .  S
C934       C1057   1.489       .  S
C935       C1022   1.504       .  S
C935        C936   1.414       .  A
C936        C937   1.401       .  A
C936        H941   1.081       .  S
C937       C1278   1.472       .  S
C937        C938   1.394       .  A
C938        H942   1.085       .  S
C939       C1262   1.477       .  S
C939        C940   1.400       .  A
C940        H943   1.081       .  S
C944       C1006   1.502       .  S
C944        C949   1.417   1_554  A
C945        C946   1.402       .  A
C945        H950   1.077       .  S
C946       C1054   1.478       .  S
C947        C948   1.397   1_554  A
C947        H951   1.084       .  S
C948       C1041   1.482       .  S
C948        C949   1.402       .  A
C949        H952   1.083       .  S
C953        C990   1.498       .  S
C953        C958   1.407       .  A
C954        C955   1.403       .  A
C954        H959   1.083       .  S
C955       C1121   1.481       .  S
C956        C957   1.396       .  A
C956        H960   1.084       .  S
C957       C1102   1.472       .  S
C957        C958   1.399       .  A
C958        H961   1.079       .  S
C962        C977   1.508       .  S
C962        C963   1.419   1_554  A
C963        C964   1.404       .  A
C963        H968   1.078       .  S
C964       C1089   1.485       .  S
C964        C965   1.397   1_556  A
C965        H969   1.085       .  S
C966       C1073   1.473       .  S
C966        C967   1.400       .  A
C967        H970   1.081       .  S
C971        C972   1.372       .  D
C971       C1009   1.503   1_556  S
C971       C1025   1.502       .  S
C972        C974   1.502   1_556  S
C972        C993   1.500       .  S
C973        C978   1.399       .  A
C973        H980   1.073       .  S
C974        C975   1.411       .  A
C975        C976   1.405       .  A
C975        C982   1.500       .  S
C976        C977   1.413       .  A
C976        H981   1.081       .  S
C978        C979   1.508       .  S
C979        H983   1.111       .  S
C979        H985   1.108       .  S
C982        H986   1.109       .  S
C982        H988   1.111       .  S
C989        C994   1.401       .  A
C989        H996   1.085       .  S
C990        C991   1.422       .  A
C991        C992   1.405       .  A
C991        C998   1.510       .  S
C992        C993   1.404       .  A
C992        H997   1.082       .  S
C994        C995   1.500       .  S
C995        H999   1.111       .  S
C995       H1001   1.095       .  S
C998       H1002   1.107       .  S
C998       H1004   1.111       .  S
C1005      C1006   1.405   1_556  A
C1005      C1010   1.401       .  A
C1005      H1012   1.084       .  S
C1007      C1008   1.406       .  A
C1007      C1014   1.510       .  S
C1008      H1013   1.082       .  S
C1009      C1010   1.419   1_554  A
C1010      C1011   1.499       .  S
C1011      H1015   1.111       .  S
C1011      H1016   1.093       .  S
C1011      H1017   1.110       .  S
C1014      H1018   1.110       .  S
C1014      H1019   1.107       .  S
C1014      H1020   1.111       .  S
C1021      C1026   1.403       .  A
C1021      H1028   1.081       .  S
C1022      C1023   1.419   1_556  A
C1023      C1024   1.399       .  A
C1023      C1030   1.508       .  S
C1024      C1025   1.404   1_554  A
C1024      H1029   1.073       .  S
C1026      C1027   1.500       .  S
C1027      H1031   1.111       .  S
C1027      H1033   1.110       .  S
C1030      H1034   1.108       .  S
C1030      H1036   1.111       .  S
C1037      C1038   1.405       .  A
C1037      C1042   1.402       .  A
C1037      H1044   1.084       .  S
C1038      C1039   1.422       .  A
C1039      C1040   1.407       .  A
C1039      C1046   1.508       .  S
C1040      C1041   1.401       .  A
C1040      H1045   1.084       .  S
C1041      C1042   1.414       .  A
C1042      C1043   1.508       .  S
C1043      H1047   1.110       .  S
C1043      H1048   1.108       .  S
C1043      H1049   1.110       .  S
C1046      H1050   1.111       .  S
C1046      H1051   1.109       .  S
C1046      H1052   1.111       .  S
C1053      C1054   1.402       .  A
C1053      C1058   1.404       .  A
C1053      H1060   1.084       .  S
C1054      C1055   1.408       .  A
C1055      C1056   1.402       .  A
C1055      C1062   1.507       .  S
C1056      C1057   1.410       .  A
C1056      H1061   1.084       .  S
C1057      C1058   1.419       .  A
C1058      C1059   1.507       .  S
C1059      H1063   1.111       .  S
C1059      H1064   1.111       .  S
C1059      H1065   1.110       .  S
C1062      H1066   1.111       .  S
C1062      H1067   1.109       .  S
C1062      H1068   1.111       .  S
C1069      C1070   1.410       .  A
C1069      C1074   1.401       .  A
C1069      H1076   1.083       .  S
C1070      C1071   1.422       .  A
C1071      C1072   1.406       .  A
C1071      C1078   1.508       .  S
C1072      C1073   1.399       .  A
C1072      H1077   1.084       .  S
C1073      C1074   1.406       .  A
C1074      C1075   1.507       .  S
C1075      H1079   1.111       .  S
C1075      H1080   1.110       .  S
C1075      H1081   1.110       .  S
C1078      H1082   1.111       .  S
C1078      H1083   1.110       .  S
C1078      H1084   1.111       .  S
C1085      C1086   1.410       .  A
C1085      C1090   1.409       .  A
C1085      H1092   1.084       .  S
C1086      C1087   1.419       .  A
C1087      C1088   1.401       .  A
C1087      C1094   1.509       .  S
C1088      C1089   1.402       .  A
C1088      H1093   1.085       .  S
C1089      C1090   1.412       .  A
C1090      C1091   1.506       .  S
C1091      H1095   1.111       .  S
C1091      H1096   1.108       .  S
C1091      H1097   1.110       .  S
C1094      H1098   1.109       .  S
C1094      H1099   1.111       .  S
C1094      H1100   1.111       .  S
C1101      C1102   1.399       .  A
C1101      C1106   1.404       .  A
C1101      H1108   1.085       .  S
C1102      C1103   1.405       .  A
C1103      C1104   1.402       .  A
C1103      C1110   1.506       .  S
C1104      C1105   1.411       .  A
C1104      H1109   1.083       .  S
C1105      C1106   1.422       .  A
C1106      C1107   1.508       .  S
C1107      H1111   1.111       .  S
C1107      H1112   1.110       .  S
C1107      H1113   1.110       .  S
C1110      H1114   1.110       .  S
C1110      H1115   1.110       .  S
C1110      H1116   1.111       .  S
C1117      C1118   1.407       .  A
C1117      C1122   1.402       .  A
C1117      H1124   1.084       .  S
C1118      C1119   1.419       .  A
C1119      C1120   1.407       .  A
C1119      C1126   1.508       .  S
C1120      C1121   1.402       .  A
C1120      H1125   1.084       .  S
C1121      C1122   1.413       .  A
C1122      C1123   1.508       .  S
C1123      H1127   1.111       .  S
C1123      H1128   1.108       .  S
C1123      H1129   1.110       .  S
C1126      H1130   1.111       .  S
C1126      H1131   1.109       .  S
C1126      H1132   1.111       .  S
C1133      C1134   1.403       .  A
C1133      C1138   1.404       .  A
C1133      H1140   1.085       .  S
C1134      C1135   1.413       .  A
C1135      C1136   1.399       .  A
C1135      C1142   1.509       .  S
C1136      C1137   1.405       .  A
C1136      H1141   1.085       .  S
C1137      C1138   1.418       .  A
C1138      C1139   1.508       .  S
C1139      H1143   1.110       .  S
C1139      H1144   1.111       .  S
C1139      H1145   1.106       .  S
C1142      H1146   1.107       .  S
C1142      H1147   1.110       .  S
C1142      H1148   1.111       .  S
C1149      C1150   1.401       .  A
C1149      C1154   1.408       .  A
C1149      H1156   1.084       .  S
C1150      C1151   1.415       .  A
C1151      C1152   1.403       .  A
C1151      C1158   1.508       .  S
C1152      C1153   1.406       .  A
C1152      H1157   1.084       .  S
C1153      C1154   1.422       .  A
C1154      C1155   1.508       .  S
C1155      H1159   1.111       .  S
C1155      H1160   1.111       .  S
C1155      H1161   1.109       .  S
C1158      H1162   1.108       .  S
C1158      H1163   1.110       .  S
C1158      H1164   1.110       .  S
C1165      C1166   1.396       .  A
C1165      C1170   1.399       .  A
C1165      H1172   1.085       .  S
C1167      C1168   1.411       .  A
C1167      C1174   1.505       .  S
C1168      H1173   1.065       .  S
C1169      C1170   1.428       .  A
C1170      C1171   1.504       .  S
C1171      H1175   1.111       .  S
C1171      H1177   1.108       .  S
C1174      H1178   1.110       .  S
C1174      H1180   1.109       .  S
C1181      C1186   1.401       .  A
C1181      H1188   1.084       .  S
C1182      C1183   1.414   1_554  A
C1183      C1184   1.403       .  A
C1183      C1190   1.508       .  S
C1184      C1185   1.410   1_556  A
C1184      H1189   1.081       .  S
C1186      C1187   1.510       .  S
C1187      H1191   1.111       .  S
C1187      H1193   1.109       .  S
C1190      H1194   1.106       .  S
C1190      H1196   1.111       .  S
C1197      C1202   1.418   1_655  A
C1197      H1204   1.083       .  S
C1198      C1199   1.430   1_655  A
C1199      C1200   1.389       .  A
C1199      C1206   1.512       .  S
C1200      C1201   1.390       .  A
C1200      H1205   1.086       .  S
C1202      C1203   1.503   1_455  S
C1203      H1207   1.110       .  S
C1203      H1209   1.109   1_655  S
C1206      H1210   1.106       .  S
C1206      H1212   1.112       .  S
C1213      C1218   1.402   1_455  A
C1213      H1220   1.084       .  S
C1214      C1215   1.425       .  A
C1215      C1216   1.400       .  A
C1215      C1222   1.511       .  S
C1216      C1217   1.400   1_456  A
C1216      H1221   1.085       .  S
C1218      C1219   1.505       .  S
C1219      H1223   1.110       .  S
C1219      H1225   1.106       .  S
C1222      H1226   1.107       .  S
C1222      H1228   1.111       .  S
C1229      C1230   1.394       .  A
C1229      C1234   1.402       .  A
C1229      H1236   1.085       .  S
C1230      C1231   1.409       .  A
C1231      C1232   1.404       .  A
C1231      C1238   1.507       .  S
C1232      C1233   1.410       .  A
C1232      H1237   1.083       .  S
C1233      C1234   1.427       .  A
C1234      C1235   1.509       .  S
C1235      H1239   1.111       .  S
C1235      H1240   1.110       .  S
C1235      H1241   1.110       .  S
C1238      H1242   1.110       .  S
C1238      H1243   1.110       .  S
C1238      H1244   1.111       .  S
C1245      C1246   1.408       .  A
C1245      C1250   1.404       .  A
C1245      H1252   1.083       .  S
C1246      C1247   1.424       .  A
C1247      C1248   1.406       .  A
C1247      C1254   1.509       .  S
C1248      C1249   1.400       .  A
C1248      H1253   1.084       .  S
C1249      C1250   1.410       .  A
C1250      C1251   1.507       .  S
C1251      H1255   1.111       .  S
C1251      H1256   1.109       .  S
C1251      H1257   1.110       .  S
C1254      H1258   1.109       .  S
C1254      H1259   1.111       .  S
C1254      H1260   1.111       .  S
C1261      C1262   1.401       .  A
C1261      C1266   1.409       .  A
C1261      H1268   1.084       .  S
C1262      C1263   1.412       .  A
C1263      C1264   1.397       .  A
C1263      C1270   1.510       .  S
C1264      C1265   1.406       .  A
C1264      H1269   1.084       .  S
C1265      C1266   1.422       .  A
C1266      C1267   1.507       .  S
C1267      H1271   1.111       .  S
C1267      H1272   1.111       .  S
C1267      H1273   1.109       .  S
C1270      H1274   1.108       .  S
C1270      H1275   1.110       .  S
C1270      H1276   1.111       .  S
C1277      C1278   1.396       .  A
C1277      C1282   1.405       .  A
C1277      H1284   1.084       .  S
C1278      C1279   1.407       .  A
C1279      C1280   1.402       .  A
C1279      C1286   1.507       .  S
C1280      C1281   1.410       .  A
C1280      H1285   1.083       .  S
C1281      C1282   1.426       .  A
C1282      C1283   1.508       .  S
C1283      H1287   1.111       .  S
C1283      H1288   1.110       .  S
C1283      H1289   1.110       .  S
C1286      H1290   1.110       .  S
C1286      H1291   1.110       .  S
C1286      H1292   1.111       .  S
C1293      C1294   1.409       .  A
C1293      C1298   1.403       .  A
C1293      H1300   1.084       .  S
C1294      C1295   1.420       .  A
C1295      C1296   1.401       .  A
C1295      C1302   1.509       .  S
C1296      C1297   1.401       .  A
C1296      H1301   1.085       .  S
C1297      C1298   1.410       .  A
C1298      C1299   1.507       .  S
C1299      H1303   1.111       .  S
C1299      H1304   1.108       .  S
C1299      H1305   1.110       .  S
C1302      H1306   1.110       .  S
C1302      H1307   1.110       .  S
C1302      H1308   1.111       .  S
C1309      C1310   1.404       .  A
C1309      C1314   1.406       .  A
C1309      H1316   1.084       .  S
C1310      C1311   1.412       .  A
C1311      C1312   1.404       .  A
C1311      C1318   1.507       .  S
C1312      C1313   1.407       .  A
C1312      H1317   1.084       .  S
C1313      C1314   1.418       .  A
C1314      C1315   1.507       .  S
C1315      H1319   1.111       .  S
C1315      H1320   1.111       .  S
C1315      H1321   1.110       .  S
C1318      H1322   1.110       .  S
C1318      H1323   1.109       .  S
C1318      H1324   1.111       .  S
C1325      C1326   1.406   1_556  A
C1325      C1330   1.403       .  A
C1325      H1332   1.083       .  S
C1327      C1328   1.398       .  A
C1327      C1334   1.508       .  S
C1328      H1333   1.084       .  S
C1329      C1330   1.418   1_554  A
C1330      C1331   1.507       .  S
C1331      H1335   1.111       .  S
C1331      H1336   1.108       .  S
C1331      H1337   1.110       .  S
C1334      H1338   1.106       .  S
C1334      H1339   1.110       .  S
C1334      H1340   1.111       .  S
C1341      C1342   1.408       .  A
C1341      C1346   1.404       .  A
C1341      H1348   1.084       .  S
C1342      C1343   1.422       .  A
C1343      C1344   1.405       .  A
C1343      C1350   1.508       .  S
C1344      C1345   1.399       .  A
C1344      H1349   1.084       .  S
C1345      C1346   1.410       .  A
C1346      C1347   1.507       .  S
C1347      H1351   1.111       .  S
C1347      H1352   1.109       .  S
C1347      H1353   1.110       .  S
C1350      H1354   1.109       .  S
C1350      H1355   1.111       .  S
C1350      H1356   1.111       .  S
C1357      C1358   1.397       .  A
C1357      C1362   1.403       .  A
C1357      H1364   1.085       .  S
C1358      C1359   1.406       .  A
C1359      C1360   1.404       .  A
C1359      C1366   1.506       .  S
C1360      C1361   1.411       .  A
C1360      H1365   1.083       .  S
C1361      C1362   1.425       .  A
C1362      C1363   1.509       .  S
C1363      H1367   1.111       .  S
C1363      H1368   1.110       .  S
C1363      H1369   1.110       .  S
C1366      H1370   1.110       .  S
C1366      H1371   1.110       .  S
C1366      H1372   1.111       .  S
C1373      C1374   1.405   1_554  A
C1373      C1378   1.403       .  A
C1373      H1380   1.070       .  S
C1375      C1376   1.401       .  A
C1375      C1382   1.506       .  S
C1376      H1381   1.084       .  S
C1377      C1378   1.414   1_556  A
C1378      C1379   1.509       .  S
C1379      H1383   1.111       .  S
C1379      H1384   1.110       .  S
C1382      H1387   1.110       .  S
C1382      H1388   1.111       .  S
C1389      C1390   1.400       .  A
C1389      C1394   1.404       .  A
C1389      H1396   1.084       .  S
C1390      C1391   1.413       .  A
C1391      C1392   1.403       .  A
C1391      C1398   1.504       .  S
C1392      C1393   1.404       .  A
C1392      H1397   1.084       .  S
C1393      C1394   1.422       .  A
C1394      C1395   1.508       .  S
C1395      H1399   1.111       .  S
C1395      H1400   1.111       .  S
C1395      H1401   1.110       .  S
C1398      H1402   1.110       .  S
C1398      H1403   1.105       .  S
C1398      H1404   1.111       .  S
C1405      C1406   1.401       .  A
C1405      C1410   1.405       .  A
C1405      H1412   1.084       .  S
C1406      C1407   1.415       .  A
C1407      C1408   1.400       .  A
C1407      C1414   1.509       .  S
C1408      C1409   1.405       .  A
C1408      H1413   1.084       .  S
C1409      C1410   1.422       .  A
C1410      C1411   1.508       .  S
C1411      H1415   1.111       .  S
C1411      H1416   1.109       .  S
C1411      H1417   1.111       .  S
C1414      H1418   1.110       .  S
C1414      H1419   1.108       .  S
C1414      H1420   1.111       .  S
C1421      C1426   1.401       .  A
C1421      H1428   1.080       .  S
C1422      C1423   1.429       .  A
C1423      C1424   1.403       .  A
C1423      C1430   1.506       .  S
C1424      C1425   1.398   1_566  A
C1424      H1429   1.081   1_565  S
C1426      C1427   1.507   1_565  S
C1427      H1431   1.110   1_545  S
C1427      H1433   1.105       .  S
C1430      H1434   1.108       .  S
C1430      H1436   1.111       .  S
C1437      C1438   1.406       .  A
C1437      C1442   1.402       .  A
C1437      H1444   1.085       .  S
C1438      C1439   1.416       .  A
C1439      C1440   1.404       .  A
C1439      C1446   1.508       .  S
C1440      C1441   1.403       .  A
C1440      H1445   1.085       .  S
C1441      C1442   1.414       .  A
C1442      C1443   1.508       .  S
C1443      H1447   1.110       .  S
C1443      H1448   1.110       .  S
C1443      H1449   1.108       .  S
C1446      H1450   1.107       .  S
C1446      H1451   1.111       .  S
C1446      H1452   1.110       .  S
C1453      C1454   1.405       .  A
C1453      C1458   1.406       .  A
C1453      H1460   1.085       .  S
C1454      C1455   1.412       .  A
C1455      C1456   1.402       .  A
C1455      C1462   1.508       .  S
C1456      C1457   1.406       .  A
C1456      H1461   1.085       .  S
C1457      C1458   1.417       .  A
C1458      C1459   1.508       .  S
C1459      H1463   1.110       .  S
C1459      H1464   1.106       .  S
C1459      H1465   1.111       .  S
C1462      H1466   1.110       .  S
C1462      H1467   1.108       .  S
C1462      H1468   1.110       .  S
C1469      C1474   1.410       .  A
C1469      H1476   1.083       .  S
C1470      C1471   1.421   1_554  A
C1471      C1472   1.398       .  A
C1471      C1478   1.512       .  S
C1472      C1473   1.403   1_566  A
C1472      H1477   1.077       .  S
C1474      C1475   1.505   1_565  S
C1475      H1479   1.111       .  S
C1475      H1480   1.103       .  S
C1475      H1481   1.105       .  S
C1478      H1482   1.110       .  S
C1478      H1483   1.108       .  S
C1478      H1484   1.111       .  S
C1485      C1486   1.409       .  A
C1485      C1490   1.403       .  A
C1485      H1492   1.084       .  S
C1486      C1487   1.420       .  A
C1487      C1488   1.399       .  A
C1487      C1494   1.509       .  S
C1488      C1489   1.398       .  A
C1488      H1493   1.085       .  S
C1489      C1490   1.407       .  A
C1490      C1491   1.506       .  S
C1491      H1495   1.111       .  S
C1491      H1496   1.110       .  S
C1491      H1497   1.110       .  S
C1494      H1498   1.110       .  S
C1494      H1499   1.111       .  S
C1494      H1500   1.111       .  S
C1501      C1502   1.410       .  A
C1501      C1506   1.404       .  A
C1501      H1508   1.083       .  S
C1502      C1503   1.425       .  A
C1503      C1504   1.408       .  A
C1503      C1510   1.508       .  S
C1504      C1505   1.400       .  A
C1504      H1509   1.084       .  S
C1505      C1506   1.410       .  A
C1506      C1507   1.508       .  S
C1507      H1511   1.111       .  S
C1507      H1512   1.109       .  S
C1507      H1513   1.110       .  S
C1510      H1514   1.110       .  S
C1510      H1515   1.110       .  S
C1510      H1516   1.111       .  S
C1517      C1518   1.409       .  A
C1517      C1522   1.401       .  A
C1517      H1524   1.083       .  S
C1518      C1519   1.423       .  A
C1519      C1520   1.404       .  A
C1519      C1526   1.509       .  S
C1520      C1521   1.399       .  A
C1520      H1525   1.084       .  S
C1521      C1522   1.408       .  A
C1522      C1523   1.507       .  S
C1523      H1527   1.111       .  S
C1523      H1528   1.110       .  S
C1523      H1529   1.109       .  S
C1526      H1530   1.111       .  S
C1526      H1531   1.110       .  S
C1526      H1532   1.111       .  S
C1533      C1534   1.399       .  A
C1533      C1538   1.406       .  A
C1533      H1540   1.084       .  S
C1534      C1535   1.407       .  A
C1535      C1536   1.404       .  A
C1535      C1542   1.507       .  S
C1536      C1537   1.411       .  A
C1536      H1541   1.083       .  S
C1537      C1538   1.424       .  A
C1538      C1539   1.508       .  S
C1539      H1543   1.111       .  S
C1539      H1544   1.110       .  S
C1539      H1545   1.110       .  S
C1542      H1546   1.109       .  S
C1542      H1547   1.110       .  S
C1542      H1548   1.111       .  S
