geometry optimzed in LAMMPS
_audit_creation_date              2020-11-30 
_audit_creation_method            'lammps2cif' 
_symmetry_space_group_name_H-M    'P1' 
_symmetry_Int_Tables_number       1 
_symmetry_cell_setting            triclinic 
loop_ 
_symmetry_equiv_pos_as_xyz 
  x,y,z 
_cell_length_a                    33.8622549 
_cell_length_b                    34.162654694926594 
_cell_length_c                    34.053385582840924 
_cell_angle_alpha                 89.94087688560973 
_cell_angle_beta                  89.90931728137558 
_cell_angle_gamma                 89.82559684683642 
loop_ 
_atom_site_label 
_atom_site_type_symbol 
_atom_site_fract_x 
_atom_site_fract_y 
_atom_site_fract_z 
_atom_site_charge 
N1          N  0.89952145  0.79145717  0.11459494    -0.28300
N2          N  0.87281463  0.79546523  0.08661029    -0.36200
C3          C  0.87968269  0.76875653  0.05853574     0.00000
C4          C  0.91260536  0.74698727  0.06893025     0.06000
C5          C  0.92457653  0.76233799  0.10465545    -0.07100
H6          H  0.86323443  0.76689604  0.03139207     0.06700
H7          H  0.95013080  0.75372203  0.12165816     0.07900
Cu8        Cu  0.83104868  0.83988397  0.08481634     0.44200
Cu9        Cu  0.90168009  0.82818253  0.16316120     0.42000
Cu10       Cu  0.83330459  0.91067005  0.16411148     0.43900
N11         N  0.79340665  0.88773248  0.08775877    -0.35700
N12         N  0.79331558  0.91282979  0.11730432    -0.30000
C13         C  0.76567076  0.94034718  0.11038720    -0.06100
C14         C  0.74779540  0.93252958  0.07458013     0.06200
C15         C  0.76636033  0.89899783  0.06100669    -0.00100
H16         H  0.76021674  0.96526122  0.12923588     0.07600
H17         H  0.76094126  0.88406665  0.03354658     0.06700
N18         N  0.87823725  0.90273959  0.20558591    -0.37200
N19         N  0.90204330  0.87198722  0.20550219    -0.29300
C20         C  0.92879963  0.87597417  0.23429487    -0.04600
C21         C  0.92210854  0.91114095  0.25360532     0.04000
C22         C  0.88968124  0.92733210  0.23440345     0.02100
H23         H  0.95291465  0.85571428  0.23908500     0.07200
H24         H  0.87613938  0.95548013  0.24005858     0.06100
C25         C  0.15346417  0.49808059  0.87491209     0.85500
C26         C  0.10884356  0.49139838  0.88126840    -0.54800
C27         C  0.09600078  0.50154117  0.91796640     0.08400
C28         C  0.12868318  0.51749985  0.94504641     0.19300
C29         C  0.15918656  0.54157119  0.88477232    -0.55500
C30         C  0.14637832  0.55163093  0.92144498     0.08500
C31         C  0.17340168  0.47572314  0.90863866    -0.55000
C32         C  0.16117407  0.48607399  0.94527278     0.09100
H33         H  0.08865457  0.48088316  0.85912638     0.13600
H34         H  0.11814917  0.52618641  0.97470308    -0.00700
H35         H  0.17195840  0.56257022  0.86445622     0.13900
H36         H  0.19604683  0.45363782  0.90374311     0.13700
C37         C  0.99719799  0.49601695  0.97336619     0.85500
C38         C  0.04146515  0.48876049  0.96539610    -0.54800
C39         C  0.05382752  0.50129589  0.92935693     0.08400
C40         C  0.02099826  0.52011205  0.90425512     0.19300
C41         C  0.99230708  0.54042032  0.96688128    -0.55500
C42         C  0.00465866  0.55307504  0.93072689     0.08500
C43         C  0.97589964  0.47699095  0.93858444    -0.55000
C44         C  0.98788155  0.48944588  0.90249632     0.09100
H45         H  0.06204850  0.47661801  0.98638390     0.13600
H46         H  0.03122753  0.53052507  0.87506074    -0.00700
H47         H  0.98067576  0.56012174  0.98910934     0.13900
H48         H  0.95303466  0.45503845  0.94237342     0.13700
C49         C  0.00099996  0.65355068  0.87862893     0.85500
C50         C  0.04519305  0.65933849  0.88795467    -0.54800
C51         C  0.05618943  0.64567418  0.92399910     0.08400
C52         C  0.02236545  0.62691280  0.94758333     0.19300
C53         C  0.99497770  0.60905420  0.88364410    -0.55500
C54         C  0.00600373  0.59514333  0.91981784     0.08500
C55         C  0.97909237  0.67202533  0.91345706    -0.55000
C56         C  0.98991042  0.65822786  0.94931454     0.09100
H57         H  0.06671264  0.67132094  0.86780874     0.13600
H58         H  0.03153257  0.61560025  0.97678786    -0.00700
H59         H  0.98318191  0.59034768  0.86075373     0.13900
H60         H  0.95665527  0.69459397  0.90996575     0.13700
C61         C  0.15456310  0.64700444  0.98065318     0.85500
C62         C  0.11025864  0.65515518  0.97331369    -0.54800
C63         C  0.09792696  0.64442825  0.93660643     0.08400
C64         C  0.13059466  0.62650854  0.91070639     0.19300
C65         C  0.15891083  0.60289756  0.97227020    -0.55500
C66         C  0.14648925  0.59237097  0.93558852     0.08500
C67         C  0.17592377  0.66740495  0.94666106    -0.55000
C68         C  0.16412651  0.65646301  0.91027696     0.09100
H69         H  0.08995664  0.66670053  0.99500330     0.13600
H70         H  0.12046504  0.61756414  0.88103141    -0.05500
H71         H  0.17071898  0.58201303  0.99329283     0.13900
H72         H  0.19944941  0.68852989  0.95115041     0.13700
N73         N  0.26334390  0.78442137  0.12807318    -0.28300
N74         N  0.28910785  0.78171577  0.09902953    -0.36200
C75         C  0.27888706  0.75141695  0.07597911     0.00000
C76         C  0.24467511  0.73475701  0.09095405     0.06000
C77         C  0.23563607  0.75662090  0.12390943    -0.07100
H78         H  0.29338870  0.74404654  0.04862097     0.06700
H79         H  0.20982495  0.75377491  0.14244901     0.07900
Cu80       Cu  0.33231059  0.82401870  0.08891895     0.44200
Cu81       Cu  0.26416140  0.82882263  0.16895973     0.42000
Cu82       Cu  0.32803587  0.91124784  0.15330670     0.43900
N83         N  0.36957724  0.87233971  0.08357219    -0.35700
N84         N  0.36900639  0.90292752  0.10749827    -0.30000
C85         C  0.39721372  0.92822516  0.09596512    -0.06100
C86         C  0.41603081  0.91323367  0.06304045     0.06200
C87         C  0.39748402  0.87795863  0.05579727    -0.00100
H88         H  0.40265554  0.95627587  0.10962163     0.07600
H89         H  0.40367312  0.85791267  0.03198263     0.06700
N90         N  0.28328620  0.91049909  0.19619134    -0.37200
N91         N  0.26173549  0.87892416  0.20250067    -0.29300
C92         C  0.23508036  0.88628157  0.23070549    -0.04600
C93         C  0.23930033  0.92461242  0.24291884     0.04000
C94         C  0.27016143  0.93926979  0.22020432     0.02100
H95         H  0.21262331  0.86576023  0.23992771     0.07200
H96         H  0.28167307  0.96876883  0.22058828     0.06100
N97         N  0.78867479  0.27828388  0.73237389    -0.28300
N98         N  0.79127714  0.25495057  0.70159489    -0.36200
C99         C  0.76799776  0.22377480  0.70704101     0.00000
C100        C  0.74992563  0.22714201  0.74330962     0.06000
C101        C  0.76335503  0.26241756  0.75840994    -0.07100
H102        H  0.76689304  0.19906936  0.68724792     0.06700
H103        H  0.75808932  0.27382650  0.78758780     0.07900
Cu104      Cu  0.83387883  0.25964434  0.65895815     0.44200
Cu105      Cu  0.82667732  0.32525443  0.74041721     0.42000
Cu106      Cu  0.91286161  0.32868010  0.67588249     0.43900
N107        N  0.88594367  0.25905193  0.62796045    -0.35700
N108        N  0.91462567  0.28463023  0.63338792    -0.30000
C109        C  0.94525072  0.27464931  0.61027713    -0.06100
C110        C  0.93550496  0.24089844  0.58984334     0.06200
C111        C  0.89771995  0.23176925  0.60197231    -0.00100
H112        H  0.97333129  0.28966740  0.60993137     0.07600
H113        H  0.88032743  0.20673040  0.59327888     0.06700
N114        N  0.90507993  0.36522366  0.72446707    -0.37200
N115        N  0.87332243  0.36412321  0.74708547    -0.29300
C116        C  0.87811627  0.38894964  0.77722370    -0.04600
C117        C  0.91479348  0.40669492  0.77395286     0.04000
C118        C  0.93103959  0.39080761  0.73995780     0.02100
H119        H  0.85715028  0.39196081  0.80101111     0.07200
H120        H  0.96011072  0.39632071  0.72802068     0.06100
C121        C  0.48535127  0.09955311  0.01091505     0.85500
C122        C  0.52957028  0.10537347  0.01618123    -0.54800
C123        C  0.55331367  0.08237042  0.99298084     0.08400
C124        C  0.52929086  0.05348928  0.96715316     0.19300
C125        C  0.47806317  0.10363008  0.96684774    -0.55500
C126        C  0.50166764  0.08082129  0.94319220     0.08500
C127        C  0.47878779  0.05629034  0.01874100    -0.55000
C128        C  0.50127995  0.03188743  0.99635567     0.09100
H129        H  0.54035162  0.12680587  0.03690783     0.13600
H130        H  0.54762266  0.03365073  0.94897538    -0.00700
H131        H  0.45580473  0.12372973  0.95611698     0.13900
H132        H  0.45704481  0.04474684  0.03899299     0.13700
C133        C  0.49143823  0.12255574  0.83792749     0.85500
C134        C  0.48578546  0.11905422  0.88233422    -0.54800
C135        C  0.50295956  0.08676369  0.89938959     0.08400
C136        C  0.52527669  0.06068847  0.86915741     0.19300
C137        C  0.53606760  0.12120460  0.83265205    -0.55500
C138        C  0.55463785  0.08906747  0.84854136     0.08500
C139        C  0.47661851  0.08380250  0.82168527    -0.55000
C140        C  0.49416653  0.05136555  0.83714565     0.09100
H141        H  0.47109370  0.14133133  0.89914516     0.13600
H142        H  0.53917007  0.03413252  0.88174888    -0.00700
H143        H  0.55107065  0.14518821  0.81827181     0.13900
H144        H  0.45402189  0.08215013  0.79910502     0.13700
C145        C  0.66599638  0.10492858  0.82917225     0.85500
C146        C  0.62148159  0.10902290  0.82391977    -0.54800
C147        C  0.59883661  0.08465128  0.84672298     0.08400
C148        C  0.62418539  0.05653852  0.87225211     0.19300
C149        C  0.67310779  0.10858397  0.87321539    -0.55500
C150        C  0.65060109  0.08455562  0.89651099     0.08500
C151        C  0.67444208  0.06200343  0.82064973    -0.55000
C152        C  0.65294371  0.03646806  0.84273737     0.09100
H153        H  0.60968456  0.13025949  0.80342982     0.13600
H154        H  0.60680300  0.03573757  0.89017732    -0.00700
H155        H  0.69441336  0.12940149  0.88426069     0.13900
H156        H  0.69613861  0.05152529  0.79974717     0.13700
C157        C  0.65854315  0.12534279  0.00211604     0.85500
C158        C  0.66457007  0.12268646  0.95773475    -0.54800
C159        C  0.64912787  0.08985418  0.94030477     0.08400
C160        C  0.62802374  0.06245378  0.97012121     0.19300
C161        C  0.61393660  0.12207420  0.00692018    -0.55500
C162        C  0.59715458  0.08918600  0.99085120     0.08500
C163        C  0.67507559  0.08710729  0.01819772    -0.55000
C164        C  0.65935614  0.05420879  0.00217204     0.09100
H165        H  0.67752455  0.14623975  0.94118186     0.13600
H166        H  0.61558371  0.03544166  0.95722873    -0.00700
H167        H  0.59760071  0.14527523  0.02126884     0.13900
H168        H  0.69735131  0.08609716  0.04114959     0.13700
N169        N  0.87033951  0.37137837  0.11644557    -0.28300
N170        N  0.89886686  0.36951871  0.14288462    -0.36200
C171        C  0.92771960  0.39465577  0.13234112     0.00000
C172        C  0.91627695  0.41360245  0.09806029     0.06000
C173        C  0.87977521  0.39803829  0.08906943    -0.07100
H174        H  0.95532067  0.39816116  0.14788804     0.06700
H175        H  0.86241168  0.40380059  0.06304025     0.07900
Cu176      Cu  0.89731091  0.33081863  0.19050952     0.44200
Cu177      Cu  0.82237660  0.33401333  0.11386661     0.42000
Cu178      Cu  0.81310337  0.26399555  0.19020673     0.43900
N179        N  0.88835550  0.28612446  0.23158166    -0.35700
N180        N  0.85830568  0.26149293  0.23049739    -0.30000
C181        C  0.86379929  0.23313090  0.25734204    -0.06100
C182        C  0.89864690  0.24048687  0.27689028     0.06200
C183        C  0.91339203  0.27438292  0.25990998    -0.00100
H184        H  0.84458339  0.20817144  0.26119070     0.07600
H185        H  0.94164870  0.28786113  0.26576487     0.06700
N186        N  0.77641599  0.26487880  0.14208847    -0.37200
N187        N  0.78056781  0.28992092  0.11286341    -0.29300
C188        C  0.75714974  0.27886613  0.08299872    -0.04600
C189        C  0.73709411  0.24530488  0.09422876     0.04000
C190        C  0.74998928  0.23751457  0.13199501     0.02100
H191        H  0.75642206  0.29303311  0.05458480     0.07200
H192        H  0.74336452  0.21195311  0.14955569     0.06100
N193        N  0.26116772  0.77898078  0.74045669    -0.28300
N194        N  0.28933405  0.78276302  0.76698967    -0.36200
C195        C  0.28228617  0.75766109  0.79656445     0.00000
C196        C  0.24775310  0.73743870  0.78850844     0.06000
C197        C  0.23523992  0.75179100  0.75261073    -0.07100
H198        H  0.29950723  0.75633393  0.82326065     0.06700
H199        H  0.20838384  0.74439294  0.73718942     0.07900
Cu200      Cu  0.33227578  0.82623145  0.76530474     0.44200
Cu201      Cu  0.25573972  0.81453258  0.69183191     0.42000
Cu202      Cu  0.32080136  0.89728465  0.68641277     0.43900
N203        N  0.36764614  0.87564377  0.75931998    -0.35700
N204        N  0.36390004  0.90080240  0.72999981    -0.30000
C205        C  0.38985739  0.93004730  0.73506179    -0.06100
C206        C  0.41085100  0.92340605  0.76941016     0.06200
C207        C  0.39577471  0.88862140  0.78408817    -0.00100
H208        H  0.39182920  0.95539902  0.71610667     0.07600
H209        H  0.40403175  0.87418812  0.81115752     0.06700
N210        N  0.27266041  0.88958005  0.64909996    -0.37200
N211        N  0.24940799  0.85868553  0.65104911    -0.29300
C212        C  0.21929422  0.86318643  0.62585825    -0.04600
C213        C  0.22339057  0.89887711  0.60692939     0.04000
C214        C  0.25780329  0.91472398  0.62240942     0.02100
H215        H  0.19537639  0.84250985  0.62299151     0.07200
H216        H  0.27008092  0.94328595  0.61636327     0.06100
C217        C  0.01307310  0.14703566  0.35489945     0.85500
C218        C  0.01849300  0.10253324  0.34825280    -0.54800
C219        C  0.05625942  0.08982765  0.35552364     0.08400
C220        C  0.08472887  0.12222549  0.36882806     0.19300
C221        C  0.02638447  0.15310072  0.39742167    -0.55500
C222        C  0.06378870  0.14032524  0.40456659     0.08500
C223        C  0.04511334  0.16609532  0.32957014    -0.55000
C224        C  0.08255513  0.15331323  0.33630012     0.09100
H225        H  0.99519614  0.08279477  0.33945060     0.13600
H226        H  0.11500733  0.11143180  0.37525552    -0.00700
H227        H  0.00769614  0.16581268  0.42005829     0.13900
H228        H  0.03826829  0.18885161  0.30831539     0.13700
C229        C  0.11534338  0.99539779  0.33837667     0.85500
C230        C  0.10341959  0.03866152  0.33338163    -0.54800
C231        C  0.06931217  0.04864858  0.35251804     0.08400
C232        C  0.04998120  0.01466131  0.37525975     0.19300
C233        C  0.11717655  0.98993563  0.38299296    -0.55500
C234        C  0.08330678  0.99989779  0.40299267     0.08500
C235        C  0.07903432  0.97235630  0.32545253    -0.55000
C236        C  0.04482803  0.98204439  0.34416935     0.09100
H237        H  0.12062528  0.06033905  0.31773959     0.13600
H238        H  0.02220296  0.02290271  0.39053282    -0.00700
H239        H  0.14416627  0.98044655  0.39724204     0.13900
H240        H  0.08013774  0.95070538  0.30209237     0.13700
C241        C  0.10577653  0.98217031  0.51303424     0.85500
C242        C  0.10791185  0.97666682  0.46854968    -0.54800
C243        C  0.08166920  0.99881549  0.44722658     0.08400
C244        C  0.05461045  0.02464299  0.47367572     0.19300
C245        C  0.10962509  0.02628126  0.51969878    -0.55500
C246        C  0.08421488  0.04913586  0.49842225     0.08500
C247        C  0.06289848  0.97391536  0.52375397    -0.55000
C248        C  0.03586092  0.99555016  0.50356186     0.09100
H249        H  0.12900050  0.95661695  0.45541885     0.13600
H250        H  0.03284832  0.04242706  0.45712254    -0.00700
H251        H  0.13126904  0.03821581  0.53976042     0.13900
H252        H  0.05389045  0.95383300  0.54675210     0.13700
C253        C  0.12733774  0.15408414  0.49634628     0.85500
C254        C  0.12536018  0.10998697  0.50509872    -0.54800
C255        C  0.08969510  0.09271923  0.49633094     0.08400
C256        C  0.05917506  0.12207305  0.47960583     0.19300
C257        C  0.11616234  0.15695387  0.45274937    -0.55500
C258        C  0.08060017  0.14036456  0.44419940     0.08500
C259        C  0.09229400  0.17126759  0.51869490    -0.55000
C260        C  0.05662171  0.15581254  0.50946076     0.09100
H261        H  0.15077956  0.09329789  0.51439153     0.13600
H262        H  0.03008592  0.10916189  0.47223567    -0.00700
H263        H  0.13435320  0.17134841  0.43081169     0.13900
H264        H  0.09530082  0.19557125  0.53907126     0.13700
N265        N  0.28781596  0.27080130  0.61397523    -0.28300
N266        N  0.25915211  0.29714813  0.61365059    -0.36200
C267        C  0.23228494  0.28667165  0.58657634     0.00000
C268        C  0.24437561  0.25176555  0.56946712     0.06000
C269        C  0.27976084  0.24271055  0.58761861    -0.07100
H270        H  0.20438048  0.30152820  0.58213812     0.06700
H271        H  0.29727093  0.21646092  0.58372974     0.07900
Cu272      Cu  0.25420734  0.34171440  0.65510117     0.44200
Cu273      Cu  0.33309229  0.26978750  0.65446724     0.42000
Cu274      Cu  0.32815729  0.33824036  0.73332727     0.43900
N275        N  0.25447513  0.37912877  0.70336653    -0.35700
N276        N  0.28223360  0.37849066  0.73065786    -0.30000
C277        C  0.27311521  0.40464939  0.75863741    -0.06100
C278        C  0.23765657  0.42244188  0.74900069     0.06200
C279        C  0.22657329  0.40540143  0.71377385    -0.00100
H280        H  0.28972430  0.40838244  0.78548516     0.07600
H281        H  0.19960609  0.41066999  0.69759213     0.06700
N282        N  0.36710095  0.29125714  0.73279738    -0.37200
N283        N  0.36943993  0.26673736  0.70294641    -0.29300
C284        C  0.39461392  0.23768396  0.71196246    -0.04600
C285        C  0.40872468  0.24386492  0.74957769     0.04000
C286        C  0.39057417  0.27821888  0.76191243     0.02100
H287        H  0.39998156  0.21247479  0.69349455     0.07200
H288        H  0.39296192  0.29193470  0.79041964     0.06100
N289        N  0.25822319  0.25073851  0.21786204    -0.28300
N290        N  0.23020745  0.27668526  0.21020821    -0.36200
C291        C  0.19781184  0.26735773  0.23091263     0.00000
C292        C  0.20583530  0.23414196  0.25282204     0.06000
C293        C  0.24449865  0.22447620  0.24402662    -0.07100
H294        H  0.16967265  0.28222022  0.22832023     0.06700
H295        H  0.26017468  0.19832813  0.25302441     0.07900
Cu296      Cu  0.23429092  0.32009984  0.16761972     0.44200
Cu297      Cu  0.30985960  0.24682123  0.18566832     0.42000
Cu298      Cu  0.31950913  0.31472707  0.10450437     0.43900
N299        N  0.24317667  0.35763818  0.12041540    -0.35700
N300        N  0.27484743  0.35583644  0.09780539    -0.30000
C301        C  0.27080157  0.38138952  0.06809932    -0.06100
C302        C  0.23464894  0.40033568  0.07183480     0.06200
C303        C  0.21801206  0.38442617  0.10556017    -0.00100
H304        H  0.29173956  0.38401114  0.04425537     0.07600
H305        H  0.18909553  0.39055046  0.11762059     0.06700
N306        N  0.35506874  0.26576811  0.11181515    -0.37200
N307        N  0.35142682  0.24113568  0.14151821    -0.29300
C308        C  0.37471460  0.20990073  0.13517047    -0.04600
C309        C  0.39400961  0.21487673  0.09959745     0.04000
C310        C  0.38096732  0.25087559  0.08579517     0.02100
H311        H  0.37578178  0.18461531  0.15425975     0.07200
H312        H  0.38753773  0.26406423  0.05765643     0.06100
N313        N  0.90480496  0.89460898  0.64566199    -0.28300
N314        N  0.87727648  0.92209396  0.64829640    -0.36200
C315        C  0.88372727  0.94915850  0.61999349     0.00000
C316        C  0.91623165  0.93755663  0.59794603     0.06000
C317        C  0.92869679  0.90292428  0.61519407    -0.07100
H318        H  0.86594804  0.97515562  0.61560843     0.06700
H319        H  0.95419145  0.88562230  0.60690310     0.07900
Cu320      Cu  0.83166669  0.92012013  0.69003103     0.44200
Cu321      Cu  0.91079436  0.84759302  0.68461475     0.42000
Cu322      Cu  0.83483214  0.83802154  0.75825525     0.43900
N323        N  0.79015218  0.91080505  0.73487808    -0.35700
N324        N  0.79243512  0.88194534  0.76074234    -0.30000
C325        C  0.76363667  0.88635189  0.78779805    -0.06100
C326        C  0.74144487  0.91895314  0.77794411     0.06200
C327        C  0.75912671  0.93370303  0.74429536    -0.00100
H328        H  0.75945871  0.86747113  0.81298035     0.07600
H329        H  0.75116669  0.96031996  0.72894464     0.06700
N330        N  0.88092060  0.79836989  0.75184218    -0.37200
N331        N  0.91001398  0.80260206  0.72627141    -0.29300
C332        C  0.93731507  0.77451414  0.73291351    -0.04600
C333        C  0.92430576  0.75107461  0.76365116     0.04000
C334        C  0.88841735  0.76716286  0.77473983     0.02100
H335        H  0.96498935  0.77193092  0.71719538     0.07200
H336        H  0.87027838  0.75837934  0.79938624     0.06100
C337        C  0.19173563  0.24186228  0.51918214    -0.14400
C338        C  0.22033288  0.22590452  0.54423497     0.07800
C339        C  0.22313196  0.18501131  0.54779661    -0.14400
C340        C  0.19539702  0.16069224  0.52972829    -0.14400
C341        C  0.16446522  0.17685351  0.50725943     0.07800
C342        C  0.16458981  0.21759433  0.50041362    -0.14400
H343        H  0.18931673  0.27325318  0.51537089     0.11800
H344        H  0.24503485  0.17182503  0.56682190     0.11800
H345        H  0.19726224  0.12979048  0.53584605     0.11800
H346        H  0.14141811  0.23104189  0.48307778     0.11800
C347        C  0.97799830  0.95224719  0.50705001    -0.14400
C348        C  0.99363409  0.98974088  0.51359285     0.07800
C349        C  0.97653166  0.01313627  0.54306925    -0.14400
C350        C  0.94776913  0.99750705  0.56849062    -0.14400
C351        C  0.93640782  0.95808909  0.56511183     0.07800
C352        C  0.95018550  0.93635864  0.53291381    -0.14400
H353        H  0.99124102  0.93330873  0.48514401     0.11800
H354        H  0.98875848  0.04169675  0.54943602     0.11800
H355        H  0.93764851  0.01483733  0.59316348     0.11800
H356        H  0.94171544  0.90599948  0.52951366     0.11800
C357        C  0.13997369  0.20322057  0.25544663    -0.14400
C358        C  0.17652631  0.20974627  0.27329933     0.07800
C359        C  0.18402958  0.19365438  0.31053916    -0.14400
C360        C  0.15406436  0.17366179  0.33080566    -0.14400
C361        C  0.11660877  0.16906153  0.31365613     0.07800
C362        C  0.11064659  0.18256730  0.27505450    -0.14400
H363        H  0.13397810  0.21434930  0.22624627     0.11800
H364        H  0.21234201  0.19808147  0.32456673     0.11800
H365        H  0.15969640  0.16342395  0.36035285     0.11800
H366        H  0.08286337  0.17800894  0.26010714     0.11800
C367        C  0.20447555  0.95218456  0.55954114    -0.14400
C368        C  0.19457843  0.91792166  0.58007036     0.07800
C369        C  0.15638072  0.90257380  0.57551804    -0.14400
C370        C  0.12808940  0.92226326  0.55309573    -0.14400
C371        C  0.13699929  0.95821833  0.53491850     0.07800
C372        C  0.17628410  0.97163701  0.53670078    -0.14400
H373        H  0.23393148  0.96423264  0.56124620     0.11800
H374        H  0.14775216  0.87572638  0.58994680     0.11800
H375        H  0.09939094  0.90889314  0.55019264     0.11800
H376        H  0.18503749  0.99792486  0.52122969     0.11800
C377        C  0.94425706  0.23068389  0.33303044    -0.14400
C378        C  0.91967771  0.21445955  0.30446345     0.07800
C379        C  0.91918067  0.17361799  0.29945819    -0.14400
C380        C  0.94641904  0.14988169  0.31939206    -0.14400
C381        C  0.97395819  0.16672385  0.34522939     0.07800
C382        C  0.97060605  0.20704400  0.35362505    -0.14400
H383        H  0.94476170  0.26203080  0.33777117     0.11800
H384        H  0.90024753  0.16043543  0.27758902     0.11800
H385        H  0.94791747  0.11925685  0.31169397     0.11800
H386        H  0.99152009  0.22114249  0.37300337     0.11800
C387        C  0.71924899  0.21723834  0.02869026    -0.14400
C388        C  0.71335465  0.21880509  0.06945223     0.07800
C389        C  0.68715652  0.19229519  0.08694533    -0.14400
C390        C  0.66865087  0.16363018  0.06447702    -0.14400
C391        C  0.67584623  0.16047158  0.02384214     0.07800
C392        C  0.70094593  0.18832476  0.00613464    -0.14400
H393        H  0.73959942  0.23708855  0.01443815     0.11800
H394        H  0.68167634  0.19306197  0.11827869     0.11800
H395        H  0.64957801  0.14281760  0.07915673     0.11800
H396        H  0.70829336  0.18747211  0.97532739     0.11800
C397        C  0.67587093  0.95198717  0.78124498    -0.14400
C398        C  0.70953325  0.93804628  0.80072477     0.07800
C399        C  0.71539384  0.94832390  0.84023137    -0.14400
C400        C  0.69104889  0.97657435  0.85801313    -0.14400
C401        C  0.66032012  0.99425453  0.83663168     0.07800
C402        C  0.65097911  0.97926097  0.79938049    -0.14400
H403        H  0.67065652  0.94423192  0.75085944     0.11800
H404        H  0.74125932  0.93793919  0.85579687     0.11800
H405        H  0.69947983  0.98829656  0.88631989     0.11800
H406        H  0.62796163  0.99296123  0.78203127     0.11800
C407        C  0.47667131  0.15977627  0.77563539    -0.14400
C408        C  0.47248725  0.15739906  0.81673522     0.07800
C409        C  0.44971212  0.18647897  0.83572751    -0.14400
C410        C  0.43037829  0.21556155  0.81404754    -0.14400
C411        C  0.43296820  0.21625052  0.77293745     0.07800
C412        C  0.45700077  0.18854813  0.75403797    -0.14400
H413        H  0.49434257  0.13835242  0.76001518     0.11800
H414        H  0.44553321  0.18704661  0.86705509     0.11800
H415        H  0.41208474  0.23654668  0.82949646     0.11800
H416        H  0.46017863  0.18868565  0.72240210     0.11800
C417        C  0.46516672  0.98419302  0.84576898    -0.14400
C418        C  0.48318737  0.01230991  0.82165803     0.07800
C419        C  0.48227698  0.00716157  0.78073901    -0.14400
C420        C  0.46060542  0.97683136  0.76402033    -0.14400
C421        C  0.43959142  0.95057159  0.78780405     0.07800
C422        C  0.44360665  0.95332357  0.82891507    -0.14400
H423        H  0.46506403  0.98786980  0.87735302     0.11800
H424        H  0.49600376  0.02849036  0.76154275     0.11800
H425        H  0.45884258  0.97505187  0.73232723     0.11800
H426        H  0.42781464  0.93341236  0.84801012     0.11800
C427        C  0.46321888  0.16887408  0.02508037    -0.14400
C428        C  0.46158046  0.12890062  0.03522046     0.07800
C429        C  0.43923528  0.11812819  0.06842924    -0.14400
C430        C  0.41796901  0.14612792  0.08957584    -0.14400
C431        C  0.41845081  0.18568887  0.07835458     0.07800
C432        C  0.44163967  0.19681868  0.04605727    -0.14400
H433        H  0.48104874  0.17845626  0.00046006     0.11800
H434        H  0.43817335  0.08843270  0.07903371     0.11800
H435        H  0.40065650  0.13641492  0.11443342     0.11800
H436        H  0.44329334  0.22713796  0.03698990     0.11800
C437        C  0.99034290  0.23788451  0.54166333    -0.14400
C438        C  0.96169688  0.21815023  0.56364092     0.07800
C439        C  0.96046125  0.17692135  0.56236841    -0.14400
C440        C  0.98978071  0.15582572  0.54209189    -0.14400
C441        C  0.02018570  0.17590930  0.52276083     0.07800
C442        C  0.01894854  0.21702307  0.52110068    -0.14400
H443        H  0.99139562  0.26956840  0.54137482     0.11800
H444        H  0.93841582  0.16104698  0.57898607     0.11800
H445        H  0.99018328  0.12415959  0.54366128     0.11800
H446        H  0.04164148  0.23316360  0.50558897     0.11800
C447        C  0.73301124  0.15668208  0.75370685    -0.14400
C448        C  0.72793409  0.19612311  0.76426285     0.07800
C449        C  0.70262645  0.20535945  0.79550754    -0.14400
C450        C  0.68279095  0.17569916  0.81570304    -0.14400
C451        C  0.68833346  0.13596501  0.80577116     0.07800
C452        C  0.71359488  0.12698879  0.77414264    -0.14400
H453        H  0.75262436  0.14845062  0.72998597     0.11800
H454        H  0.69790169  0.23550401  0.80414558     0.11800
H455        H  0.66311071  0.18375616  0.83949162     0.11800
H456        H  0.71856652  0.09741839  0.76436273     0.11800
C457        C  0.20398300  0.98523235  0.26686008    -0.14400
C458        C  0.21266746  0.94519918  0.27087153     0.07800
C459        C  0.19269907  0.92362905  0.29979328    -0.14400
C460        C  0.16317655  0.94096316  0.32256296    -0.14400
C461        C  0.15232986  0.98041474  0.31708347     0.07800
C462        C  0.17402568  0.00268343  0.28955959    -0.14400
H463        H  0.21885155  0.00258109  0.24473362     0.11800
H464        H  0.19910223  0.89285715  0.30412758     0.11800
H465        H  0.14738610  0.92291365  0.34348800     0.11800
H466        H  0.16719034  0.03300539  0.28389975     0.11800
C467        C  0.48144357  0.94610194  0.05679308    -0.14400
C468        C  0.44643757  0.93328525  0.03910532     0.07800
C469        C  0.43819163  0.94496345  0.00040912    -0.14400
C470        C  0.46198570  0.97302288  0.98173700    -0.14400
C471        C  0.49445457  0.98943254  0.00142804     0.07800
C472        C  0.50571845  0.97328432  0.03773216    -0.14400
H473        H  0.48842765  0.93735781  0.08657284     0.11800
H474        H  0.41120817  0.93555829  0.98627647     0.11800
H475        H  0.45191276  0.98572868  0.95435083     0.11800
H476        H  0.52997368  0.98605060  0.05395657     0.11800
C477        C  0.21387068  0.65247729  0.02439770    -0.14400
C478        C  0.17338137  0.66062486  0.01889977     0.07800
C479        C  0.15541800  0.68872997  0.04344050    -0.14400
C480        C  0.17826760  0.71079543  0.06955326    -0.14400
C481        C  0.21942454  0.70568935  0.07106208     0.07800
C482        C  0.23673067  0.67522438  0.04959453    -0.14400
H483        H  0.22874412  0.63121754  0.00595392     0.11800
H484        H  0.12461396  0.69634172  0.04049414     0.11800
H485        H  0.16420854  0.73410229  0.08601553     0.11800
H486        H  0.26834215  0.67039497  0.05068410     0.11800
C487        C  0.22637002  0.67192684  0.87494989    -0.14400
C488        C  0.18492588  0.67085130  0.87494095     0.07800
C489        C  0.16423436  0.68758754  0.84349477    -0.14400
C490        C  0.18474326  0.70774665  0.81397619    -0.14400
C491        C  0.22615850  0.71125361  0.81565245     0.07800
C492        C  0.24676400  0.69193949  0.84566887    -0.14400
H493        H  0.24296124  0.65853080  0.89862282     0.11800
H494        H  0.13229199  0.68714061  0.84299876     0.11800
H495        H  0.16802013  0.72233519  0.79116870     0.11800
H496        H  0.27865516  0.69332056  0.84726543     0.11800
C497        C  0.00630783  0.69930320  0.81843914    -0.14400
C498        C  0.98509269  0.67121860  0.84041331     0.07800
C499        C  0.94490552  0.66569317  0.83131474    -0.14400
C500        C  0.92563379  0.69012848  0.80444045    -0.14400
C501        C  0.94620870  0.72019318  0.78524954     0.07800
C502        C  0.98707708  0.72325341  0.79099462    -0.14400
H503        H  0.03699126  0.70538592  0.82403593     0.11800
H504        H  0.92754896  0.64458433  0.84758361     0.11800
H505        H  0.89413550  0.68679562  0.80015893     0.11800
H506        H  0.00365662  0.74624364  0.77661893     0.11800
C507        C  0.00017216  0.45480014  0.03721674    -0.14400
C508        C  0.97982915  0.48080473  0.01198607     0.07800
C509        C  0.93962080  0.48817641  0.01969853    -0.14400
C510        C  0.91960890  0.46791706  0.04923769    -0.14400
C511        C  0.93933135  0.44012557  0.07241355     0.07800
C512        C  0.98011282  0.43491301  0.06725531    -0.14400
H513        H  0.03084514  0.44752285  0.03279962     0.11800
H514        H  0.92295370  0.50782698  0.00098363     0.11800
H515        H  0.88819790  0.47280625  0.05287472     0.11800
H516        H  0.99596800  0.41346490  0.08462917     0.11800
C517        C  0.92830364  0.46938332  0.86464224    -0.14400
C518        C  0.96943211  0.47404481  0.86610390     0.07800
C519        C  0.99240184  0.46020633  0.83466927    -0.14400
C520        C  0.97467921  0.43959653  0.80366341    -0.14400
C521        C  0.93363188  0.43280195  0.80351813     0.07800
C522        C  0.91063378  0.44924662  0.83373125    -0.14400
H523        H  0.90981225  0.48043027  0.88816401     0.11800
H524        H  0.02416736  0.46339373  0.83512917     0.11800
H525        H  0.99336121  0.42760914  0.78082511     0.11800
H526        H  0.87890954  0.44575126  0.83425595     0.11800
C527        C  0.22101233  0.46319164  0.98129539    -0.14400
C528        C  0.18000585  0.46936639  0.98089822     0.07800
C529        C  0.15747936  0.45678325  0.01309696    -0.14400
C530        C  0.17534225  0.43567239  0.04371762    -0.14400
C531        C  0.21609372  0.42714921  0.04270486     0.07800
C532        C  0.23883255  0.44248636  0.01180085    -0.14400
H533        H  0.23929343  0.47360690  0.95735585     0.11800
H534        H  0.12587620  0.46142580  0.01362911     0.11800
H535        H  0.15688470  0.42469789  0.06719601     0.11800
H536        H  0.27038466  0.43771108  0.01043588     0.11800
C537        C  0.21320598  0.49135984  0.83170143    -0.14400
C538        C  0.17219125  0.48603306  0.83597393     0.07800
C539        C  0.15201671  0.46501858  0.80659792    -0.14400
C540        C  0.17303744  0.44662565  0.77622283    -0.14400
C541        C  0.21445011  0.44859009  0.77491507     0.07800
C542        C  0.23409646  0.47251162  0.80191657    -0.14400
H543        H  0.22962424  0.50773972  0.85343529     0.11800
H544        H  0.12054828  0.46046171  0.80788422     0.11800
H545        H  0.15712097  0.42858445  0.75550588     0.11800
H546        H  0.26594539  0.47521992  0.80112641     0.11800
C547        C  0.94792322  0.96986730  0.29083527    -0.14400
C548        C  0.94808730  0.92919423  0.28392125     0.07800
C549        C  0.97607796  0.90602426  0.30376493    -0.14400
C550        C  0.00528839  0.92326919  0.32686792    -0.14400
C551        C  0.00717351  0.96409868  0.33105198     0.07800
C552        C  0.97728486  0.98716655  0.31420765    -0.14400
H553        H  0.92677683  0.98865626  0.27620470     0.11800
H554        H  0.97667642  0.87458185  0.30006478     0.11800
H555        H  0.02809895  0.90484655  0.33946160     0.11800
H556        H  0.97847161  0.01871709  0.31640270     0.11800
C557        C  0.71840124  0.96136909  0.01293714    -0.14400
C558        C  0.71828919  0.95740547  0.05413462     0.07800
C559        C  0.69211789  0.98041851  0.07626633    -0.14400
C560        C  0.66902988  0.00904072  0.05812158    -0.14400
C561        C  0.67188544  0.01560508  0.01750576     0.07800
C562        C  0.69549592  0.99056667  0.99472878    -0.14400
H563        H  0.73833473  0.94399056  0.99514893     0.11800
H564        H  0.69089037  0.97758545  0.10792074     0.11800
H565        H  0.65123435  0.02829547  0.07625375     0.11800
H566        H  0.69872511  0.99567470  0.96349505     0.11800
C567        C  0.97421227  0.71412190  0.04369190    -0.14400
C568        C  0.93280830  0.71779230  0.04381075     0.07800
C569        C  0.91072066  0.69636590  0.01646183    -0.14400
C570        C  0.92960333  0.67431872  0.98755267    -0.14400
C571        C  0.97094444  0.67317314  0.98543082     0.07800
C572        C  0.99319829  0.69192385  0.01454976    -0.14400
H573        H  0.99195210  0.73044524  0.06437602     0.11800
H574        H  0.87878280  0.69806028  0.01632107     0.11800
H575        H  0.91193783  0.65980752  0.96545136     0.11800
H576        H  0.02512163  0.69172931  0.01311786     0.11800
loop_ 
_geom_bond_atom_site_label_1 
_geom_bond_atom_site_label_2 
_geom_bond_distance 
_geom_bond_site_symmetry_2 
_ccdc_geom_bond_type 
N1            N2   1.322       .  A
N1            C5   1.349       .  A
N1           Cu9   2.078       .  S
N2            C3   1.342       .  A
N2           Cu8   2.072       .  S
C3            C4   1.385       .  A
C3            H6   1.082       .  S
C4            C5   1.387       .  A
C4          C568   1.480       .  S
C5            H7   1.082       .  S
Cu8          N11   2.072       .  S
Cu9          N19   2.079       .  S
Cu10         N12   2.094       .  S
Cu10         N18   2.094       .  S
N11          N12   1.323       .  A
N11          C15   1.348       .  A
N12          C13   1.346       .  A
C13          C14   1.389       .  A
C13          H16   1.082       .  S
C14          C15   1.385       .  A
C14         C558   1.484       .  S
C15          H17   1.082       .  S
N18          N19   1.322       .  A
N18          C22   1.351       .  A
N19          C20   1.343       .  A
C20          C21   1.388       .  A
C20          H23   1.081       .  S
C21          C22   1.392       .  A
C21         C548   1.492       .  S
C22          H24   1.081       .  S
C25          C26   1.544       .  S
C25          C31   1.535       .  S
C25          C29   1.536       .  S
C25         C538   1.525       .  S
C26          H33   1.081       .  S
C26          C27   1.367       .  D
C27          C28   1.543       .  S
C27          C39   1.479       .  S
C28          C32   1.535       .  S
C28          C30   1.538       .  S
C28          H34   1.111       .  S
C29          H35   1.086       .  S
C29          C30   1.365       .  D
C30          C66   1.473       .  S
C31          H36   1.087       .  S
C31          C32   1.361       .  D
C32         C528   1.484       .  S
C37          C38   1.542   1_655  S
C37          C43   1.534       .  S
C37          C41   1.541       .  S
C37         C508   1.531   1_556  S
C38          H45   1.081       .  S
C38          C39   1.365       .  D
C39          C40   1.542       .  S
C40          C44   1.538   1_455  S
C40          C42   1.544       .  S
C40          H46   1.111       .  S
C41          H47   1.086       .  S
C41          C42   1.370   1_655  D
C42          C54   1.485       .  S
C43          H48   1.087       .  S
C43          C44   1.362       .  D
C44         C518   1.486       .  S
C49          C50   1.544       .  S
C49          C55   1.533   1_455  S
C49          C53   1.544   1_455  S
C49         C498   1.532   1_455  S
C50          H57   1.081       .  S
C50          C51   1.365       .  D
C51          C52   1.539       .  S
C51          C63   1.478       .  S
C52          C56   1.532   1_455  S
C52          C54   1.545       .  S
C52          H58   1.111       .  S
C53          H59   1.086       .  S
C53          C54   1.372   1_655  D
C55          H60   1.087       .  S
C55          C56   1.359       .  D
C56         C571   1.477       .  S
C61          C62   1.546       .  S
C61          C67   1.532       .  S
C61          C65   1.540       .  S
C61         C478   1.525   1_556  S
C62          H69   1.082       .  S
C62          C63   1.369       .  D
C63          C64   1.540       .  S
C64          C68   1.531       .  S
C64          C66   1.537       .  S
C64          H70   1.111       .  S
C65          H71   1.086       .  S
C65          C66   1.368       .  D
C67          H72   1.088       .  S
C67          C68   1.356       .  D
C68         C488   1.478       .  S
N73          N74   1.321       .  A
N73          C77   1.345       .  A
N73         Cu81   2.060       .  S
N74          C75   1.346       .  A
N74         Cu80   2.087       .  S
C75          C76   1.388       .  A
C75          H78   1.082       .  S
C76          C77   1.382       .  A
C76         C481   1.478       .  S
C77          H79   1.082       .  S
Cu80         N83   2.089       .  S
Cu81         N91   2.060       .  S
Cu82         N84   2.105       .  S
Cu82         N90   2.103       .  S
N83          N84   1.326       .  A
N83          C87   1.350       .  A
N84          C85   1.348       .  A
C85          C86   1.386       .  A
C85          H88   1.082       .  S
C86          C87   1.383       .  A
C86         C468   1.481       .  S
C87          H89   1.082       .  S
N90          N91   1.321       .  A
N90          C94   1.353       .  A
N91          C92   1.340       .  A
C92          C93   1.382       .  A
C92          H95   1.082       .  S
C93          C94   1.393       .  A
C93         C458   1.486       .  S
C94          H96   1.082       .  S
N97          N98   1.320       .  A
N97         C101   1.347       .  A
N97        Cu105   2.079       .  S
N98          C99   1.340       .  A
N98        Cu104   2.052       .  S
C99         C100   1.382       .  A
C99         H102   1.081       .  S
C100        C101   1.389       .  A
C100        C448   1.479       .  S
C101        H103   1.082       .  S
Cu104       N107   2.054       .  S
Cu105       N115   2.079       .  S
Cu106       N108   2.089       .  S
Cu106       N114   2.090       .  S
N107        N108   1.322       .  A
N107        C111   1.345       .  A
N108        C109   1.344       .  A
C109        C110   1.388       .  A
C109        H112   1.082       .  S
C110        C111   1.380       .  A
C110        C438   1.477       .  S
C111        H113   1.082       .  S
N114        N115   1.322       .  A
N114        C118   1.350       .  A
N115        C116   1.342       .  A
C116        C117   1.388       .  A
C116        H119   1.081       .  S
C117        C118   1.391       .  A
C117        C521   1.491       .  S
C118        H120   1.081       .  S
C121        C122   1.522       .  S
C121        C127   1.518       .  S
C121        C125   1.527   1_554  S
C121        C428   1.527       .  S
C122        H129   1.082       .  S
C122        C123   1.372   1_554  D
C123        C124   1.555       .  S
C123        C162   1.505       .  S
C124        C128   1.560       .  S
C124        C126   1.552       .  S
C124        H130   1.107       .  S
C125        H131   1.082       .  S
C125        C126   1.375       .  D
C126        C135   1.506       .  S
C127        H132   1.083       .  S
C127        C128   1.361   1_554  D
C128        C471   1.479   1_546  S
C133        C134   1.529       .  S
C133        C139   1.522       .  S
C133        C137   1.522       .  S
C133        C408   1.531       .  S
C134        H141   1.073       .  S
C134        C135   1.374       .  D
C135        C136   1.556       .  S
C136        C140   1.551       .  S
C136        C138   1.557       .  S
C136        H142   1.107       .  S
C137        H143   1.082       .  S
C137        C138   1.374       .  D
C138        C147   1.505       .  S
C139        H144   1.087       .  S
C139        C140   1.362       .  D
C140        C418   1.484       .  S
C145        C146   1.524       .  S
C145        C151   1.521       .  S
C145        C149   1.525       .  S
C145        C451   1.527       .  S
C146        H153   1.082       .  S
C146        C147   1.373       .  D
C147        C148   1.553       .  S
C148        C152   1.557       .  S
C148        C150   1.552       .  S
C148        H154   1.107       .  S
C149        H155   1.083       .  S
C149        C150   1.373       .  D
C150        C159   1.503       .  S
C151        H156   1.083       .  S
C151        C152   1.363       .  D
C152        C401   1.478   1_545  S
C157        C158   1.527   1_554  S
C157        C163   1.521       .  S
C157        C161   1.523       .  S
C157        C391   1.529       .  S
C158        H165   1.076       .  S
C158        C159   1.375       .  D
C159        C160   1.555       .  S
C160        C164   1.548   1_556  S
C160        C162   1.555       .  S
C160        H166   1.107       .  S
C161        H167   1.082       .  S
C161        C162   1.375   1_554  D
C163        H168   1.088       .  S
C163        C164   1.360       .  D
C164        C561   1.479       .  S
N169        N170   1.323       .  A
N169        C173   1.342       .  A
N169       Cu177   2.071       .  S
N170        C171   1.351       .  A
N170       Cu176   2.092       .  S
C171        C172   1.389       .  A
C171        H174   1.082       .  S
C172        C173   1.382       .  A
C172        C511   1.481       .  S
C173        H175   1.082       .  S
Cu176       N179   2.092       .  S
Cu177       N187   2.071       .  S
Cu178       N180   2.059       .  S
Cu178       N186   2.058       .  S
N179        N180   1.323       .  A
N179        C183   1.345       .  A
N180        C181   1.344       .  A
C181        C182   1.380       .  A
C181        H184   1.082       .  S
C182        C183   1.388       .  A
C182        C378   1.475       .  S
C183        H185   1.082       .  S
N186        N187   1.319       .  A
N186        C190   1.341       .  A
N187        C188   1.346       .  A
C188        C189   1.387       .  A
C188        H191   1.082       .  S
C189        C190   1.384       .  A
C189        C388   1.478       .  S
C190        H192   1.082       .  S
N193        N194   1.322       .  A
N193        C197   1.345       .  A
N193       Cu201   2.061       .  S
N194        C195   1.344       .  A
N194       Cu200   2.082       .  S
C195        C196   1.388       .  A
C195        H198   1.082       .  S
C196        C197   1.383       .  A
C196        C491   1.480       .  S
C197        H199   1.082       .  S
Cu200       N203   2.082       .  S
Cu201       N211   2.060       .  S
Cu202       N204   2.087       .  S
Cu202       N210   2.086       .  S
N203        N204   1.323       .  A
N203        C207   1.349       .  A
N204        C205   1.344       .  A
C205        C206   1.388       .  A
C205        H208   1.082       .  S
C206        C207   1.387       .  A
C206        C421   1.486       .  S
C207        H209   1.082       .  S
N210        N211   1.320       .  A
N210        C214   1.347       .  A
N211        C212   1.342       .  A
C212        C213   1.386       .  A
C212        H215   1.081       .  S
C213        C214   1.391       .  A
C213        C368   1.486       .  S
C214        H216   1.081       .  S
C217        C218   1.548       .  S
C217        C223   1.531       .  S
C217        C221   1.532       .  S
C217        C381   1.520   1_455  S
C218        H225   1.082   1_455  S
C218        C219   1.372       .  D
C219        C220   1.539       .  S
C219        C231   1.477       .  S
C220        C224   1.535       .  S
C220        C222   1.537       .  S
C220        H226   1.111       .  S
C221        H227   1.087       .  S
C221        C222   1.361       .  D
C222        C258   1.466       .  S
C223        H228   1.086       .  S
C223        C224   1.359       .  D
C224        C361   1.488       .  S
C229        C230   1.540   1_565  S
C229        C235   1.528       .  S
C229        C233   1.532       .  S
C229        C461   1.533       .  S
C230        H237   1.083       .  S
C230        C231   1.368       .  D
C231        C232   1.542       .  S
C232        C236   1.548   1_545  S
C232        C234   1.555   1_545  S
C232        H238   1.110       .  S
C233        H239   1.084       .  S
C233        C234   1.375       .  D
C234        C243   1.508       .  S
C235        H240   1.087       .  S
C235        C236   1.361       .  D
C236        C551   1.486       .  S
C241        C242   1.528       .  S
C241        C247   1.524       .  S
C241        C245   1.530   1_565  S
C241        C371   1.529       .  S
C242        H249   1.084       .  S
C242        C243   1.373       .  D
C243        C244   1.557   1_565  S
C244        C248   1.558   1_545  S
C244        C246   1.557       .  S
C244        H250   1.108       .  S
C245        H251   1.084       .  S
C245        C246   1.368       .  D
C246        C255   1.503       .  S
C247        H252   1.085       .  S
C247        C248   1.362       .  D
C248        C348   1.483   1_455  S
C253        C254   1.537       .  S
C253        C259   1.525       .  S
C253        C257   1.536       .  S
C253        C341   1.527       .  S
C254        H261   1.079       .  S
C254        C255   1.379       .  D
C255        C256   1.547       .  S
C256        C260   1.540       .  S
C256        C258   1.539       .  S
C256        H262   1.110       .  S
C257        H263   1.086       .  S
C257        C258   1.364       .  D
C259        H264   1.088       .  S
C259        C260   1.357       .  D
C260        C441   1.481       .  S
N265        N266   1.322       .  A
N265        C269   1.344       .  A
N265       Cu273   2.064       .  S
N266        C267   1.346       .  A
N266       Cu272   2.083       .  S
C267        C268   1.388       .  A
C267        H270   1.082       .  S
C268        C269   1.383       .  A
C268        C338   1.480       .  S
C269        H271   1.082       .  S
Cu272       N275   2.083       .  S
Cu273       N283   2.063       .  S
Cu274       N276   2.075       .  S
Cu274       N282   2.074       .  S
N275        N276   1.323       .  A
N275        C279   1.348       .  A
N276        C277   1.342       .  A
C277        C278   1.384       .  A
C277        H280   1.082       .  S
C278        C279   1.387       .  A
C278        C541   1.480       .  S
C279        H281   1.082       .  S
N282        N283   1.320       .  A
N282        C286   1.346       .  A
N283        C284   1.342       .  A
C284        C285   1.384       .  A
C284        H287   1.082       .  S
C285        C286   1.388       .  A
C285        C411   1.481       .  S
C286        H288   1.082       .  S
N289        N290   1.322       .  A
N289        C293   1.347       .  A
N289       Cu297   2.066       .  S
N290        C291   1.342       .  A
N290       Cu296   2.078       .  S
C291        C292   1.384       .  A
C291        H294   1.082       .  S
C292        C293   1.382       .  A
C292        C358   1.472       .  S
C293        H295   1.082       .  S
Cu296       N299   2.077       .  S
Cu297       N307   2.067       .  S
Cu298       N300   2.073       .  S
Cu298       N306   2.073       .  S
N299        N300   1.321       .  A
N299        C303   1.347       .  A
N300        C301   1.342       .  A
C301        C302   1.389       .  A
C301        H304   1.081       .  S
C302        C303   1.389       .  A
C302        C531   1.488       .  S
C303        H305   1.081       .  S
N306        N307   1.321       .  A
N306        C310   1.345       .  A
N307        C308   1.342       .  A
C308        C309   1.386       .  A
C308        H311   1.081       .  S
C309        C310   1.387       .  A
C309        C431   1.482       .  S
C310        H312   1.082       .  S
N313        N314   1.324       .  A
N313        C317   1.345       .  A
N313       Cu321   2.092       .  S
N314        C315   1.353       .  A
N314       Cu320   2.098       .  S
C315        C316   1.388       .  A
C315        H318   1.082       .  S
C316        C317   1.385       .  A
C316        C351   1.486       .  S
C317        H319   1.082       .  S
Cu320       N323   2.099       .  S
Cu321       N331   2.091       .  S
Cu322       N324   2.075       .  S
Cu322       N330   2.075       .  S
N323        N324   1.324       .  A
N323        C327   1.346       .  A
N324        C325   1.349       .  A
C325        C326   1.383       .  A
C325        H328   1.082       .  S
C326        C327   1.387       .  A
C326        C398   1.480       .  S
C327        H329   1.082       .  S
N330        N331   1.322       .  A
N330        C334   1.344       .  A
N331        C332   1.350       .  A
C332        C333   1.389       .  A
C332        H335   1.082       .  S
C333        C334   1.384       .  A
C333        C501   1.483       .  S
C334        H336   1.082       .  S
C337        C338   1.400       .  A
C337        C342   1.396       .  A
C337        H343   1.083       .  S
C338        C339   1.405       .  A
C339        C340   1.399       .  A
C339        H344   1.082       .  S
C340        C341   1.409       .  A
C340        H345   1.078       .  S
C341        C342   1.411       .  A
C342        H346   1.083       .  S
C347        C348   1.406       .  A
C347        C352   1.399       .  A
C347        H353   1.084       .  S
C348        C349   1.407   1_565  A
C349        C350   1.408   1_545  A
C349        H354   1.083       .  S
C350        C351   1.407       .  A
C350        H355   1.083   1_565  S
C351        C352   1.403       .  A
C352        H356   1.083       .  S
C357        C358   1.398       .  A
C357        C362   1.390       .  A
C357        H363   1.083       .  S
C358        C359   1.405       .  A
C359        C360   1.405       .  A
C359        H364   1.083       .  S
C360        C361   1.406       .  A
C360        H365   1.082       .  S
C361        C362   1.407       .  A
C362        H366   1.082       .  S
C367        C368   1.404       .  A
C367        C372   1.398       .  A
C367        H373   1.082       .  S
C368        C369   1.406       .  A
C369        C370   1.397       .  A
C369        H374   1.081       .  S
C370        C371   1.408       .  A
C370        H375   1.080       .  S
C371        C372   1.410       .  A
C372        H376   1.083       .  S
C377        C378   1.397       .  A
C377        C382   1.392       .  A
C377        H383   1.083       .  S
C378        C379   1.406       .  A
C379        C380   1.402       .  A
C379        H384   1.083       .  S
C380        C381   1.408       .  A
C380        H385   1.080       .  S
C381        C382   1.411       .  A
C382        H386   1.083       .  S
C387        C388   1.403       .  A
C387        C392   1.399       .  A
C387        H393   1.082       .  S
C388        C389   1.401       .  A
C389        C390   1.394       .  A
C389        H394   1.083       .  S
C390        C391   1.409       .  A
C390        H395   1.083       .  S
C391        C392   1.412       .  A
C392        H396   1.078   1_554  S
C397        C398   1.402       .  A
C397        C402   1.398       .  A
C397        H403   1.083       .  S
C398        C399   1.405       .  A
C399        C400   1.404       .  A
C399        H404   1.083       .  S
C400        C401   1.405       .  A
C400        H405   1.083       .  S
C401        C402   1.405       .  A
C402        H406   1.084       .  S
C407        C408   1.409       .  A
C407        C412   1.395       .  A
C407        H413   1.083       .  S
C408        C409   1.412       .  A
C409        C410   1.399       .  A
C409        H414   1.076       .  S
C410        C411   1.403       .  A
C410        H415   1.082       .  S
C411        C412   1.403       .  A
C412        H416   1.083       .  S
C417        C418   1.403   1_565  A
C417        C422   1.408       .  A
C417        H423   1.083       .  S
C418        C419   1.405       .  A
C419        C420   1.394   1_545  A
C419        H424   1.084       .  S
C420        C421   1.403       .  A
C420        H425   1.083       .  S
C421        C422   1.410       .  A
C422        H426   1.082       .  S
C427        C428   1.409       .  A
C427        C432   1.397       .  A
C427        H433   1.083       .  S
C428        C429   1.409       .  A
C429        C430   1.396       .  A
C429        H434   1.077       .  S
C430        C431   1.404       .  A
C430        H435   1.081       .  S
C431        C432   1.403       .  A
C432        H436   1.082       .  S
C437        C438   1.399       .  A
C437        C442   1.390   1_655  A
C437        H443   1.083       .  S
C438        C439   1.410       .  A
C439        C440   1.406       .  A
C439        H444   1.083       .  S
C440        C441   1.402   1_655  A
C440        H445   1.083       .  S
C441        C442   1.406       .  A
C442        H446   1.084       .  S
C447        C448   1.405       .  A
C447        C452   1.395       .  A
C447        H453   1.082       .  S
C448        C449   1.401       .  A
C449        C450   1.397       .  A
C449        H454   1.083       .  S
C450        C451   1.411       .  A
C450        H455   1.083       .  S
C451        C452   1.408       .  A
C452        H456   1.077       .  S
C457        C458   1.405       .  A
C457        C462   1.406   1_565  A
C457        H463   1.083   1_565  S
C458        C459   1.403       .  A
C459        C460   1.395       .  A
C459        H464   1.083       .  S
C460        C461   1.408       .  A
C460        H465   1.083       .  S
C461        C462   1.413   1_565  A
C462        H466   1.078       .  S
C467        C468   1.402       .  A
C467        C472   1.400       .  A
C467        H473   1.083       .  S
C468        C469   1.405       .  A
C469        C470   1.405   1_554  A
C469        H474   1.083   1_554  S
C470        C471   1.407   1_556  A
C470        H475   1.083       .  S
C471        C472   1.406       .  A
C472        H476   1.084       .  S
C477        C478   1.411       .  A
C477        C482   1.395       .  A
C477        H483   1.083       .  S
C478        C479   1.410       .  A
C479        C480   1.402       .  A
C479        H484   1.079       .  S
C480        C481   1.405       .  A
C480        H485   1.083       .  S
C481        C482   1.399       .  A
C482        H486   1.083       .  S
C487        C488   1.404       .  A
C487        C492   1.392       .  A
C487        H493   1.084       .  S
C488        C489   1.401       .  A
C489        C490   1.402       .  A
C489        H494   1.082       .  S
C490        C491   1.409       .  A
C490        H495   1.082       .  S
C491        C492   1.402       .  A
C492        H496   1.083       .  S
C497        C498   1.413   1_455  A
C497        C502   1.401   1_455  A
C497        H503   1.078       .  S
C498        C499   1.409       .  A
C499        C500   1.399       .  A
C499        H504   1.083       .  S
C500        C501   1.403       .  A
C500        H505   1.083       .  S
C501        C502   1.402       .  A
C502        H506   1.083   1_655  S
C507        C508   1.414   1_455  A
C507        C512   1.403   1_455  A
C507        H513   1.078       .  S
C508        C509   1.408       .  A
C509        C510   1.396       .  A
C509        H514   1.083       .  S
C510        C511   1.402       .  A
C510        H515   1.083       .  S
C511        C512   1.403       .  A
C512        H516   1.083       .  S
C517        C518   1.403       .  A
C517        C522   1.395       .  A
C517        H523   1.083       .  S
C518        C519   1.404       .  A
C519        C520   1.406       .  A
C519        H524   1.082   1_655  S
C520        C521   1.410       .  A
C520        H525   1.082       .  S
C521        C522   1.406       .  A
C522        H526   1.081       .  S
C527        C528   1.404       .  A
C527        C532   1.393   1_556  A
C527        H533   1.083       .  S
C528        C529   1.403   1_556  A
C529        C530   1.404       .  A
C529        H534   1.081       .  S
C530        C531   1.410       .  A
C530        H535   1.082       .  S
C531        C532   1.405       .  A
C532        H536   1.081       .  S
C537        C538   1.409       .  A
C537        C542   1.393       .  A
C537        H543   1.084       .  S
C538        C539   1.410       .  A
C539        C540   1.403       .  A
C539        H544   1.078       .  S
C540        C541   1.405       .  A
C540        H545   1.083       .  S
C541        C542   1.401       .  A
C542        H546   1.083       .  S
C547        C548   1.410       .  A
C547        C552   1.407       .  A
C547        H553   1.082       .  S
C548        C549   1.406       .  A
C549        C550   1.397   1_655  A
C549        H554   1.082       .  S
C550        C551   1.404       .  A
C550        H555   1.084       .  S
C551        C552   1.404   1_455  A
C552        H556   1.081   1_565  S
C557        C558   1.409       .  A
C557        C562   1.406   1_554  A
C557        H563   1.083   1_554  S
C558        C559   1.402       .  A
C559        C560   1.395   1_565  A
C559        H564   1.083       .  S
C560        C561   1.404       .  A
C560        H565   1.084       .  S
C561        C562   1.403   1_544  A
C562        H566   1.083       .  S
C567        C568   1.407       .  A
C567        C572   1.404       .  A
C567        H573   1.083       .  S
C568        C569   1.403       .  A
C569        C570   1.394   1_554  A
C569        H574   1.083       .  S
C570        C571   1.402       .  A
C570        H575   1.084       .  S
C571        C572   1.403   1_556  A
C572        H576   1.082   1_655  S
