geometry optimzed in LAMMPS
_audit_creation_date              2020-11-30 
_audit_creation_method            'lammps2cif' 
_symmetry_space_group_name_H-M    'P1' 
_symmetry_Int_Tables_number       1 
_symmetry_cell_setting            triclinic 
loop_ 
_symmetry_equiv_pos_as_xyz 
  x,y,z 
_cell_length_a                    53.18774349 
_cell_length_b                    53.28100773085723 
_cell_length_c                    52.84207734280789 
_cell_angle_alpha                 90.68678212500951 
_cell_angle_beta                  90.31330310376394 
_cell_angle_gamma                 90.81407097666295 
loop_ 
_atom_site_label 
_atom_site_type_symbol 
_atom_site_fract_x 
_atom_site_fract_y 
_atom_site_fract_z 
_atom_site_charge 
O1          O  0.52769884  0.95568977  0.47747466    -0.79800
O2          O  0.45399090  0.97066538  0.51500457    -0.79900
O3          O  0.51454101  0.96376024  0.54452077    -0.79900
O4          O  0.48703482  0.96154633  0.43860814    -0.79800
O5          O  0.48219326  0.98587964  0.55600525    -0.79900
O6          O  0.52474170  0.97972293  0.43299184    -0.79800
O7          O  0.47944873  0.94875379  0.49037205    -0.79800
O8          O  0.55239798  0.96557552  0.50908581    -0.79900
C9          C  0.54777783  0.95219850  0.48962077     1.09900
C10         C  0.45965764  0.95029805  0.50383470     1.09700
C11         C  0.49809769  0.96891103  0.56071368     1.09900
C12         C  0.50602961  0.96613148  0.42424459     1.09800
O13         O  0.52057474  0.02685665  0.46080902    -0.79800
O14         O  0.48735310  0.03478706  0.53415292    -0.79900
O15         O  0.55244875  0.01904474  0.51296291    -0.79800
O16         O  0.45163406  0.98766338  0.46962951    -0.79800
O17         O  0.45512325  0.02057652  0.49472816    -0.79900
O18         O  0.55826383  0.00094466  0.47580745    -0.79800
O19         O  0.48742790  0.01003523  0.44735053    -0.79800
O20         O  0.51937294  0.01732755  0.55350487    -0.79900
Co21       Co  0.52159116  0.99122963  0.46956844     1.51500
Co22       Co  0.47167270  0.00290304  0.52330996     1.51700
Co23       Co  0.53255232  0.99160637  0.52815412     1.51600
Co24       Co  0.48827262  0.97951966  0.47092459     1.51500
O25         O  0.50364690  0.99693520  0.50277103    -1.41800
C26         C  0.50335154  0.02747663  0.44518673     1.09800
C27         C  0.50202446  0.03362805  0.55296133     1.09900
C28         C  0.56608167  0.01539786  0.49374389     1.09800
C29         C  0.44287057  0.00804834  0.47812984     1.09800
O30         O  0.01239114  0.55137268  0.48311833    -0.79800
O31         O  0.03025307  0.44843117  0.51678347    -0.79900
O32         O  0.04256345  0.49858893  0.54296197    -0.79900
O33         O  0.04081371  0.48400729  0.47154010    -0.79800
O34         O  0.01611706  0.47280455  0.55963677    -0.79900
O35         O  0.01591693  0.51073473  0.45218358    -0.79800
O36         O  0.02470378  0.43421674  0.47800924    -0.79800
O37         O  0.04199176  0.53885531  0.50940871    -0.79900
C38         C  0.03371623  0.55448335  0.49355561     1.09900
C39         C  0.03330404  0.43079832  0.50020001     1.09700
C40         C  0.03572326  0.48647253  0.56206268     1.09900
C41         C  0.03579721  0.49741703  0.45245819     1.09800
O42         O  0.96623041  0.49418353  0.46859769    -0.79800
O43         O  0.96802656  0.48456794  0.53952073    -0.79900
O44         O  0.99368778  0.55148661  0.52792188    -0.79800
O45         O  0.97944240  0.44646050  0.49710715    -0.79800
O46         O  0.98522108  0.43572432  0.53670008    -0.79900
O47         O  0.96469215  0.53630371  0.50151518    -0.79800
O48         O  0.99339543  0.46859359  0.45333825    -0.79800
O49         O  0.99212657  0.51229237  0.55965837    -0.79900
Co50       Co  0.98995955  0.52145565  0.47806694     1.51500
Co51       Co  0.99778659  0.46788234  0.52604453     1.51700
Co52       Co  0.01751950  0.52355505  0.53325059     1.51600
Co53       Co  0.01159634  0.46679183  0.48683340     1.51500
O54         O  0.00436796  0.49950401  0.50580742    -1.41800
C55         C  0.97390645  0.48150699  0.44992397     1.09800
C56         C  0.97257582  0.49795555  0.55899240     1.09900
C57         C  0.97212501  0.55267392  0.51775714     1.09800
C58         C  0.97642601  0.43033233  0.51490591     1.09800
O59         O  0.46604298  0.49463007  0.97141524    -0.79800
O60         O  0.53734658  0.50665968  0.96104278    -0.79900
O61         O  0.48336750  0.56210701  0.99721082    -0.79900
O62         O  0.50855141  0.45877366  0.97648204    -0.79800
O63         O  0.50554011  0.54802169  0.96502751    -0.79900
O64         O  0.47092934  0.44607128  0.98802219    -0.79800
O65         O  0.55399068  0.47971123  0.98594458    -0.79800
O66         O  0.44990618  0.52259091  0.99735794    -0.79900
C67         C  0.44770442  0.50809862  0.97789921     1.09900
C68         C  0.55553220  0.49261420  0.96607123     1.09700
C69         C  0.49014819  0.56360811  0.97434004     1.09900
C70         C  0.49049059  0.44237139  0.97497504     1.09800
O71         O  0.49692663  0.45866332  0.03049990    -0.79800
O72         O  0.52958519  0.56113759  0.01199788    -0.79900
O73         O  0.47158726  0.50792646  0.04608211    -0.79800
O74         O  0.54230575  0.49390475  0.03607695    -0.79800
O75         O  0.56002322  0.52046273  0.00972722    -0.79900
O76         O  0.45216869  0.48176456  0.02127933    -0.79800
O77         O  0.53388935  0.44538695  0.01853631    -0.79800
O78         O  0.50593401  0.54741081  0.04333640    -0.79900
Co79       Co  0.48327486  0.47815600  0.99958403     1.51500
Co80       Co  0.53125031  0.53245066  0.98738257     1.51700
Co81       Co  0.47932502  0.53338185  0.02056798     1.51600
Co82       Co  0.52336353  0.47775322  0.00794132     1.51500
O83         O  0.50447018  0.51012987  0.00379997    -1.41800
C84         C  0.51384636  0.44151176  0.03078412     1.09800
C85         C  0.52177227  0.56303860  0.03459971     1.09900
C86         C  0.45189425  0.49551117  0.04094809     1.09800
C87         C  0.56151681  0.50645390  0.02917073     1.09800
C88         C  0.56884574  0.93030813  0.73110061     0.03400
C89         C  0.58589170  0.91037324  0.73084012    -0.12700
C90         C  0.60072811  0.90528052  0.75221325     0.00900
C91         C  0.59801925  0.91997620  0.77423775    -0.11200
C92         C  0.58099044  0.93986003  0.77491819     0.03400
C93         C  0.56645377  0.94500761  0.75329013    -0.10700
H94         H  0.58783588  0.89896605  0.71385861     0.09000
H95         H  0.60923081  0.91598078  0.79086508     0.06500
H96         H  0.55314430  0.96021523  0.75381822     0.06400
C97         C  0.75235151  0.73721504  0.78005213     0.03400
C98         C  0.77311031  0.73798659  0.76356208    -0.12700
C99         C  0.77407673  0.75493885  0.74337075     0.00900
C100        C  0.75495509  0.77270958  0.74091666    -0.11200
C101        C  0.73428086  0.77246920  0.75733517     0.03400
C102        C  0.73261424  0.75409613  0.77609677    -0.10700
H103        H  0.78847113  0.72510205  0.76614225     0.09000
H104        H  0.75580749  0.78631850  0.72585720     0.06500
H105        H  0.71589645  0.75311149  0.78764308     0.06400
C106        C  0.93014460  0.72676525  0.57476095     0.03400
C107        C  0.94383403  0.74868315  0.56867852    -0.12700
C108        C  0.93882309  0.77160425  0.58110502     0.00900
C109        C  0.92011002  0.77234993  0.59976849    -0.11200
C110        C  0.90595195  0.75074541  0.60565942     0.03400
C111        C  0.91113329  0.72805194  0.59305656    -0.10700
H112        H  0.95852996  0.74783427  0.55458875     0.09000
H113        H  0.91667455  0.78979962  0.60984733     0.06500
H114        H  0.90059674  0.71120864  0.59779330     0.06400
C115        C  0.76868106  0.57509885  0.94314646     0.03400
C116        C  0.76669293  0.59601000  0.92705936    -0.12700
C117        C  0.74458539  0.60067953  0.91322179     0.00900
C118        C  0.72331346  0.58548714  0.91764929    -0.11200
C119        C  0.72479269  0.56439446  0.93318774     0.03400
C120        C  0.74768588  0.55879979  0.94511305    -0.10700
H121        H  0.78266733  0.60851258  0.92474060     0.09000
H122        H  0.70551011  0.58987667  0.90882360     0.06500
H123        H  0.74904539  0.54149498  0.95547143     0.06400
C124        C  0.27810547  0.23284210  0.75754117     0.03400
C125        C  0.25943606  0.23085863  0.73870912    -0.12700
C126        C  0.23871075  0.24689462  0.73908741     0.00900
C127        C  0.23614694  0.26408850  0.75928494    -0.11200
C128        C  0.25466577  0.26618350  0.77841248     0.03400
C129        C  0.27598365  0.25100984  0.77674029    -0.10700
H130        H  0.26101501  0.21683257  0.72380536     0.09000
H131        H  0.21961199  0.27571432  0.76010281     0.06500
H132        H  0.29106587  0.25317054  0.79047209     0.06400
C133        C  0.27591517  0.43557947  0.93851961     0.03400
C134        C  0.27659515  0.41587023  0.92060960    -0.12700
C135        C  0.25454469  0.40250463  0.91370767     0.00900
C136        C  0.23199619  0.40832818  0.92593693    -0.11200
C137        C  0.23117808  0.42717896  0.94458277     0.03400
C138        C  0.25306221  0.44124953  0.95048872    -0.10700
H139        H  0.29437966  0.41092589  0.91216474     0.09000
H140        H  0.21484593  0.39814590  0.92095866     0.06500
H141        H  0.25243843  0.45610963  0.96465543     0.06400
C142        C  0.42666469  0.05802417  0.76962511     0.03400
C143        C  0.43802418  0.05523441  0.74568437    -0.12700
C144        C  0.43380320  0.07288753  0.72642479     0.00900
C145        C  0.41872383  0.09362038  0.73187129    -0.11200
C146        C  0.40597737  0.09570762  0.75484911     0.03400
C147        C  0.40998221  0.07789791  0.77372266    -0.10700
H148        H  0.45010821  0.03939387  0.74216731     0.09000
H149        H  0.41652045  0.10824239  0.71799716     0.06500
H150        H  0.40047763  0.07975704  0.79172354     0.06400
C151        C  0.07284736  0.21858006  0.57736270     0.03400
C152        C  0.09253033  0.21758781  0.59504592    -0.12700
C153        C  0.10905278  0.23802759  0.59846136     0.00900
C154        C  0.10634106  0.25926098  0.58328620    -0.11200
C155        C  0.08595265  0.26145654  0.56614657     0.03400
C156        C  0.06881897  0.24091362  0.56400452    -0.10700
H157        H  0.09516213  0.20073069  0.60598823     0.09000
H158        H  0.12010543  0.27427417  0.58546594     0.06500
H159        H  0.05225396  0.24202945  0.55218977     0.06400
O160        O  0.46708776  0.00972894  0.95618670    -0.79800
O161        O  0.46728956  0.00352684  0.02709461    -0.79900
O162        O  0.48033114  0.96246918  0.98593161    -0.79900
O163        O  0.49637345  0.06799370  0.01365715    -0.79800
O164        O  0.48292345  0.95429424  0.02670270    -0.79900
O165        O  0.46666407  0.05156096  0.98900125    -0.79800
O166        O  0.49207965  0.03045956  0.04751524    -0.79800
O167        O  0.49471823  0.98366166  0.94216558    -0.79900
C168        C  0.47425857  0.99514363  0.93874642     1.09900
C169        C  0.47172274  0.01741701  0.04633906     1.09700
C170        C  0.47504404  0.94813539  0.00480649     1.09900
C171        C  0.47457508  0.06880100  0.00391305     1.09800
O172        O  0.51571010  0.06508978  0.97056973    -0.79800
O173        O  0.52863005  0.96422529  0.00686476    -0.79900
O174        O  0.54244730  0.99953404  0.96078558    -0.79800
O175        O  0.54268002  0.01437923  0.03451100    -0.79800
O176        O  0.51383715  0.98938758  0.04871850    -0.79900
O177        O  0.51744076  0.02497578  0.94003066    -0.79800
O178        O  0.54451466  0.05189856  0.99762059    -0.79800
O179        O  0.52572091  0.95013386  0.96748446    -0.79900
Co180      Co  0.49175620  0.03629223  0.96579889     1.51500
Co181      Co  0.49666543  0.98505684  0.01483729     1.51700
Co182      Co  0.51287919  0.98264011  0.97581081     1.51600
Co183      Co  0.51876471  0.03940810  0.02154312     1.51500
O184        O  0.50548818  0.01517079  0.99423594    -1.41800
C185        C  0.53759441  0.06663782  0.98028289     1.09800
C186        C  0.53243159  0.94665430  0.99029157     1.09900
C187        C  0.53792464  0.01272162  0.94143616     1.09800
C188        C  0.53424375  0.00140328  0.05250511     1.09800
C189        C  0.28632580  0.74526365  0.75356903     0.03400
C190        C  0.26825914  0.72581271  0.75405083    -0.12700
C191        C  0.25045713  0.72309539  0.73442515     0.00900
C192        C  0.25152959  0.73941965  0.71381605    -0.11200
C193        C  0.26964931  0.75879158  0.71309643     0.03400
C194        C  0.28659126  0.76192517  0.73329432    -0.10700
H195        H  0.26778392  0.71308015  0.76989534     0.09000
H196        H  0.23798980  0.73729925  0.69850721     0.06500
H197        H  0.30003622  0.77740440  0.73326612     0.06400
C198        C  0.43818972  0.73632774  0.92112533     0.03400
C199        C  0.42300637  0.73985219  0.89959637    -0.12700
C200        C  0.41126209  0.76271400  0.89526556     0.00900
C201        C  0.41585572  0.78305164  0.91159351    -0.11200
C202        C  0.43163657  0.78046139  0.93270977     0.03400
C203        C  0.44217150  0.75689287  0.93788078    -0.10700
H204        H  0.41953622  0.72447742  0.88636180     0.09000
H205        H  0.40685970  0.80082105  0.90805269     0.06500
H206        H  0.45279512  0.75459553  0.95518501     0.06400
C207        C  0.24068555  0.91325854  0.54916644     0.03400
C208        C  0.26191678  0.91956488  0.53434596    -0.12700
C209        C  0.28479560  0.90669587  0.53773495     0.00900
C210        C  0.28604992  0.88771413  0.55585419    -0.11200
C211        C  0.26500169  0.88111251  0.57009752     0.03400
C212        C  0.24240674  0.89359483  0.56644542    -0.10700
H213        H  0.26079255  0.93454791  0.52073653     0.09000
H214        H  0.30365072  0.87820046  0.55913957     0.06500
H215        H  0.22619673  0.88840781  0.57769095     0.06400
C216        C  0.08514548  0.57087598  0.77662297     0.03400
C217        C  0.07799702  0.55376706  0.75704157    -0.12700
C218        C  0.08811597  0.55596621  0.73246567     0.00900
C219        C  0.10653132  0.57450352  0.72799559    -0.11200
C220        C  0.11370493  0.59158495  0.74708103     0.03400
C221        C  0.10225930  0.59030633  0.77082759    -0.10700
H222        H  0.06463157  0.53876954  0.76080227     0.09000
H223        H  0.11508462  0.57589223  0.70948729     0.06500
H224        H  0.10684804  0.60468219  0.78481839     0.06400
C225        C  0.74784112  0.27342396  0.24224905     0.03400
C226        C  0.72754868  0.25629783  0.24463603    -0.12700
C227        C  0.72871600  0.23626308  0.26157916     0.00900
C228        C  0.74988902  0.23387779  0.27725266    -0.11200
C229        C  0.76986379  0.25127919  0.27595905     0.03400
C230        C  0.76913118  0.27043155  0.25789565    -0.10700
H231        H  0.71100568  0.25802644  0.23275485     0.09000
H232        H  0.75073169  0.21859063  0.29057356     0.06500
H233        H  0.78540841  0.28262197  0.25583827     0.06400
C234        C  0.93503796  0.26088490  0.43764906     0.03400
C235        C  0.94698418  0.23801631  0.44284003    -0.12700
C236        C  0.94084479  0.21610762  0.42864064     0.00900
C237        C  0.92254613  0.21733116  0.40945185    -0.11200
C238        C  0.91000663  0.23978491  0.40461271     0.03400
C239        C  0.91660038  0.26152769  0.41853577    -0.10700
H240        H  0.96119791  0.23735250  0.45756254     0.09000
H241        H  0.91779223  0.20061117  0.39843343     0.06500
H242        H  0.90716476  0.27898174  0.41467479     0.06400
C243        C  0.77445674  0.42121301  0.06647485     0.03400
C244        C  0.77307068  0.40338664  0.08581596    -0.12700
C245        C  0.75005053  0.39728090  0.09734132     0.00900
C246        C  0.72819018  0.40963834  0.08949127    -0.11200
C247        C  0.72914134  0.42804609  0.07063894     0.03400
C248        C  0.75243037  0.43375462  0.05913294    -0.10700
H249        H  0.79016005  0.39455768  0.09221323     0.09000
H250        H  0.71038407  0.40522878  0.09839650     0.06500
H251        H  0.75338356  0.44780564  0.04450086     0.06400
C252        C  0.56284353  0.07412954  0.27359624     0.03400
C253        C  0.58145133  0.09315180  0.27439420    -0.12700
C254        C  0.59584249  0.09894098  0.25297187     0.00900
C255        C  0.59202455  0.08479261  0.23060161    -0.11200
C256        C  0.57294587  0.06631990  0.22895885     0.03400
C257        C  0.55835367  0.06109116  0.25054816    -0.10700
H258        H  0.58465101  0.10367053  0.29182321     0.09000
H259        H  0.60350257  0.08859121  0.21416184     0.06500
H260        H  0.54345402  0.04705403  0.24931703     0.06400
O261        O  0.95839980  0.53324271  0.98823256    -0.79800
O262        O  0.05378650  0.52639716  0.01272522    -0.79900
O263        O  0.99009633  0.53420997  0.04025158    -0.79900
O264        O  0.02305872  0.53980707  0.97009719    -0.79800
O265        O  0.02716934  0.52515149  0.05219740    -0.79900
O266        O  0.99033772  0.53011311  0.94687557    -0.79800
O267        O  0.06637853  0.51471488  0.97427313    -0.79800
O268        O  0.94667050  0.51344296  0.02226193    -0.79900
C269        C  0.94166298  0.52817448  0.00419569     1.09900
C270        C  0.07055112  0.52659801  0.99512094     1.09700
C271        C  0.00769497  0.53718567  0.05628412     1.09900
C272        C  0.01055856  0.54256591  0.95001893     1.09800
O273        O  0.98527060  0.47739120  0.94745386    -0.79800
O274        O  0.01437833  0.47914504  0.05218326    -0.79900
O275        O  0.96780461  0.46549446  0.01850870    -0.79800
O276        O  0.04336966  0.46980252  0.98427210    -0.79800
O277        O  0.05382877  0.47803828  0.02269009    -0.79900
O278        O  0.94825278  0.47988693  0.98488881    -0.79800
O279        O  0.02431625  0.49229932  0.94275295    -0.79800
O280        O  0.97572717  0.49068061  0.06313879    -0.79900
Co281      Co  0.97196044  0.50505282  0.96851190     1.51500
Co282      Co  0.02617035  0.50176141  0.02332168     1.51700
Co283      Co  0.98123727  0.49910876  0.02828317     1.51600
Co284      Co  0.03162780  0.50496662  0.97877846     1.51500
O285        O  0.99871733  0.50062146  0.99508694    -1.41800
C286        C  0.00530504  0.47938633  0.93461136     1.09800
C287        C  0.99632736  0.47974362  0.06844549     1.09900
C288        C  0.94892435  0.46505043  0.00364220     1.09800
C289        C  0.05827041  0.46641096  0.00262567     1.09800
C290        C  0.22800902  0.04314684  0.39910606     0.03400
C291        C  0.22819489  0.06173849  0.38059650    -0.12700
C292        C  0.25078481  0.07294051  0.37256224     0.00900
C293        C  0.27356316  0.06478497  0.38315664    -0.11200
C294        C  0.27362186  0.04686461  0.40248948     0.03400
C295        C  0.25081267  0.03578679  0.41014421    -0.10700
H296        H  0.21043444  0.06805451  0.37299986     0.09000
H297        H  0.29127360  0.07263284  0.37677285     0.06500
H298        H  0.25076338  0.02190503  0.42497508     0.06400
C299        C  0.23410769  0.21972922  0.25440650     0.03400
C300        C  0.21379779  0.23626035  0.25613212    -0.12700
C301        C  0.21410490  0.25916548  0.24321106     0.00900
C302        C  0.23431996  0.26475326  0.22706277    -0.11200
C303        C  0.25457706  0.24829382  0.22497235     0.03400
C304        C  0.25464532  0.22620122  0.23909260    -0.10700
H305        H  0.19782744  0.23145496  0.26784418     0.09000
H306        H  0.23460731  0.28214451  0.21661607     0.06500
H307        H  0.27089948  0.21419744  0.23829390     0.06400
C308        C  0.06363302  0.42719719  0.28110976     0.03400
C309        C  0.07925770  0.40624835  0.28150198    -0.12700
C310        C  0.07998478  0.38971311  0.26082524     0.00900
C311        C  0.06402353  0.39337509  0.24011838    -0.11200
C312        C  0.04938986  0.41520791  0.23821528     0.03400
C313        C  0.04976249  0.43230469  0.25895447    -0.10700
H314        H  0.09104308  0.40285065  0.29787708     0.09000
H315        H  0.06414537  0.37956962  0.22492100     0.06500
H316        H  0.04001882  0.44991164  0.25787485     0.06400
C317        C  0.43588331  0.27851256  0.08299700     0.03400
C318        C  0.41639409  0.28037746  0.10082816    -0.12700
C319        C  0.40140353  0.25931288  0.10671400     0.00900
C320        C  0.40531645  0.23657664  0.09368717    -0.11200
C321        C  0.42476336  0.23434681  0.07605957     0.03400
C322        C  0.43977448  0.25545353  0.07055224    -0.10700
H323        H  0.41303086  0.29815438  0.11026919     0.09000
H324        H  0.39346700  0.22038365  0.09761018     0.06500
H325        H  0.45469500  0.25383950  0.05674136     0.06400
C326        C  0.76157075  0.26998684  0.73329095     0.03400
C327        C  0.74098679  0.27226032  0.74952694    -0.12700
C328        C  0.72118837  0.25458700  0.74842377     0.00900
C329        C  0.72231633  0.23439648  0.73117523    -0.11200
C330        C  0.74287281  0.23214513  0.71485230     0.03400
C331        C  0.76236126  0.25006758  0.71581588    -0.10700
H332        H  0.74072457  0.28734319  0.76347616     0.09000
H333        H  0.70740139  0.22032496  0.73065560     0.06500
H334        H  0.77850781  0.24806967  0.70354207     0.06400
C335        C  0.93476798  0.41871935  0.72488905     0.03400
C336        C  0.91562403  0.40047951  0.72547562    -0.12700
C337        C  0.91123200  0.38647458  0.74730119     0.00900
C338        C  0.92661132  0.39054989  0.76868529    -0.11200
C339        C  0.94554165  0.40932607  0.76885159     0.03400
C340        C  0.94942792  0.42344315  0.74674474    -0.10700
H341        H  0.90391739  0.39731314  0.70883711     0.09000
H342        H  0.92353237  0.37938384  0.78541341     0.06500
H343        H  0.96327497  0.43854682  0.74669240     0.06400
C344        C  0.57279431  0.23817290  0.92004676     0.03400
C345        C  0.58987148  0.23982874  0.90009367    -0.12700
C346        C  0.59201123  0.26169878  0.88591456     0.00900
C347        C  0.57742926  0.28252007  0.89220876    -0.11200
C348        C  0.55951039  0.28102123  0.91163992     0.03400
C349        C  0.55731662  0.25868445  0.92557292    -0.10700
H350        H  0.60121604  0.22375670  0.89516682     0.09000
H351        H  0.57981217  0.29974623  0.88172958     0.06500
H352        H  0.54363703  0.25725436  0.94062019     0.06400
C353        C  0.73699330  0.06101402  0.55795116     0.03400
C354        C  0.73540421  0.08120819  0.57522466    -0.12700
C355        C  0.75521374  0.08688842  0.59215995     0.00900
C356        C  0.77729506  0.07283980  0.59079471    -0.11200
C357        C  0.77973150  0.05343791  0.57284939     0.03400
C358        C  0.75948573  0.04748635  0.55652741    -0.10700
H359        H  0.71847708  0.09228366  0.57573644     0.09000
H360        H  0.79277437  0.07711028  0.60363812     0.06500
H361        H  0.76119475  0.03228613  0.54288406     0.06400
C362        C  0.77173059  0.76439690  0.26097636     0.03400
C363        C  0.79163137  0.74740860  0.26037900    -0.12700
C364        C  0.79298822  0.72890276  0.24137703     0.00900
C365        C  0.77500480  0.72831345  0.22176922    -0.11200
C366        C  0.75548119  0.74582967  0.22152112     0.03400
C367        C  0.75379462  0.76347790  0.24135781    -0.10700
H368        H  0.80622479  0.74848407  0.27474870     0.09000
H369        H  0.77624158  0.71434307  0.20678479     0.06500
H370        H  0.73836331  0.77655196  0.24145608     0.06400
C371        C  0.72308974  0.91822725  0.42685486     0.03400
C372        C  0.72817053  0.89999627  0.40825484    -0.12700
C373        C  0.75235276  0.89700101  0.39842386     0.00900
C374        C  0.77208912  0.91163747  0.40859735    -0.11200
C375        C  0.76813811  0.92934712  0.42820551     0.03400
C376        C  0.74341112  0.93231146  0.43741185    -0.10700
H377        H  0.71299229  0.88809248  0.40117286     0.09000
H378        H  0.79086438  0.90875329  0.40149786     0.06500
H379        H  0.73996503  0.94524887  0.45288218     0.06400
C380        C  0.95426799  0.56949981  0.23512129     0.03400
C381        C  0.95884359  0.55571762  0.25727122    -0.12700
C382        C  0.94541330  0.56100078  0.27965589     0.00900
C383        C  0.92734341  0.58004391  0.27960261    -0.11200
C384        C  0.92232051  0.59343054  0.25744891     0.03400
C385        C  0.93551864  0.58771713  0.23535670    -0.10700
H386        H  0.97300928  0.54131116  0.25723299     0.09000
H387        H  0.91695661  0.58418148  0.29669670     0.06500
H388        H  0.93136270  0.59784161  0.21817118     0.06400
C389        C  0.58809780  0.78144976  0.06523880     0.03400
C390        C  0.57308455  0.75929535  0.06340331    -0.12700
C391        C  0.58071939  0.73696523  0.07512617     0.00900
C392        C  0.60326295  0.73694626  0.08895546    -0.11200
C393        C  0.61818430  0.75859486  0.09114096     0.03400
C394        C  0.61123026  0.78031701  0.07835366    -0.10700
H395        H  0.55535476  0.75937801  0.05323279     0.09000
H396        H  0.60925853  0.71995238  0.09818610     0.06500
H397        H  0.62390859  0.79635355  0.07892315     0.06400
C398        C  0.23375986  0.75408191  0.27562109     0.03400
C399        C  0.25136631  0.77311516  0.27031986    -0.12700
C400        C  0.26884227  0.77008609  0.25069014     0.00900
C401        C  0.26827503  0.74780088  0.23614895    -0.11200
C402        C  0.25046232  0.72870254  0.24106411     0.03400
C403        C  0.23378395  0.73175401  0.26132506    -0.10700
H404        H  0.25164158  0.79019148  0.28168255     0.09000
H405        H  0.28178743  0.74526346  0.22108410     0.06500
H406        H  0.22057940  0.71682639  0.26584934     0.06400
C407        C  0.43210891  0.93406848  0.25353784     0.03400
C408        C  0.43579343  0.94693071  0.23077850    -0.12700
C409        C  0.42116491  0.94077387  0.20930126     0.00900
C410        C  0.40293581  0.92151053  0.21059569    -0.11200
C411        C  0.39876653  0.90887193  0.23338479     0.03400
C412        C  0.41338714  0.91526784  0.25476832    -0.10700
H413        H  0.44997028  0.96168912  0.22978055     0.09000
H414        H  0.39177985  0.91660409  0.19398463     0.06500
H415        H  0.41040942  0.90535528  0.27232949     0.06400
C416        C  0.06516372  0.77320203  0.43215736     0.03400
C417        C  0.05946429  0.74985866  0.44303972    -0.12700
C418        C  0.07424027  0.72882049  0.43758304     0.00900
C419        C  0.09470902  0.73129605  0.42109667    -0.11200
C420        C  0.10010522  0.75431823  0.40948229     0.03400
C421        C  0.08562520  0.77533022  0.41557622    -0.10700
H422        H  0.04374194  0.74812814  0.45589022     0.09000
H423        H  0.10606037  0.71507901  0.41675655     0.06500
H424        H  0.08979511  0.79319943  0.40682482     0.06400
C425        C  0.27979363  0.56355489  0.08492283     0.03400
C426        C  0.25970017  0.56067069  0.06745580    -0.12700
C427        C  0.23651030  0.57245118  0.07182111     0.00900
C428        C  0.23366224  0.58755382  0.09350963    -0.11200
C429        C  0.25332374  0.59044143  0.11102700     0.03400
C430        C  0.27567766  0.57739070  0.10735165    -0.10700
H431        H  0.26210506  0.54965992  0.05031219     0.09000
H432        H  0.21604433  0.59700881  0.09688984     0.06500
H433        H  0.29024854  0.57886556  0.12169271     0.06400
O434        O  0.00346657  0.95841491  0.54331851    -0.79800
O435        O  0.01371808  0.03026801  0.54293002    -0.79900
O436        O  0.06182098  0.96964463  0.50507873    -0.79900
O437        O  0.96261909  0.00249691  0.53755619    -0.79800
O438        O  0.05301806  0.99565702  0.53673353    -0.79900
O439        O  0.95246406  0.96227118  0.53796427    -0.79800
O440        O  0.98369136  0.04465957  0.51965606    -0.79800
O441        O  0.02303603  0.93793732  0.51317395    -0.79900
C442        C  0.01387714  0.93855295  0.53550417     1.09900
C443        C  0.99911375  0.04804667  0.53774192     1.09700
C444        C  0.06682239  0.97893622  0.52678508     1.09900
C445        C  0.94835450  0.98447349  0.54558366     1.09800
O446        O  0.95310768  0.98133999  0.49079303    -0.79800
O447        O  0.05970279  0.01355828  0.48659105    -0.79900
O448        O  0.99889167  0.95549580  0.46691953    -0.79800
O449        O  0.98966812  0.02613883  0.47007087    -0.79800
O450        O  0.02079634  0.04553035  0.49062075    -0.79900
O451        O  0.97890981  0.93973506  0.49857503    -0.79800
O452        O  0.94334496  0.02127588  0.49429645    -0.79800
O453        O  0.03976803  0.98813962  0.45969977    -0.79900
Co454      Co  0.98029880  0.97259579  0.51821641     1.51500
Co455      Co  0.03509266  0.01949864  0.51435291     1.51700
Co456      Co  0.02932695  0.96461042  0.48656906     1.51600
Co457      Co  0.97723767  0.01154729  0.50192769     1.51500
O458        O  0.00966131  0.99224689  0.50425629    -1.41800
C459        C  0.93668746  0.99886601  0.48873361     1.09800
C460        C  0.05746036  0.00363907  0.46473714     1.09900
C461        C  0.98720032  0.93707842  0.47627059     1.09800
C462        C  0.00429196  0.04509836  0.47282438     1.09800
C463        C  0.99025952  0.91153360  0.46479804    -0.11700
C464        C  0.98153899  0.88931116  0.47665189     0.03800
C465        C  0.99156065  0.86601060  0.46976289    -0.12200
C466        C  0.01011269  0.86425160  0.45115028     0.18700
C467        C  0.01679853  0.88577499  0.43746808    -0.09200
C468        C  0.00683697  0.90904681  0.44421261    -0.02200
H469        H  0.98574081  0.84934130  0.47985295     0.05200
C470        C  0.02368315  0.84039877  0.44751324     0.20600
H471        H  0.01356694  0.92549715  0.43433237     0.10400
C472        C  0.01186859  0.82008495  0.43494166    -0.15600
C473        C  0.02489876  0.79783454  0.43017267     0.03400
C474        C  0.05011379  0.79566246  0.43819128    -0.10900
C475        C  0.06167845  0.81580740  0.45127527    -0.00900
C476        C  0.04866063  0.83796306  0.45612140    -0.06100
H477        H  0.99266515  0.82178247  0.42828017     0.06400
H478        H  0.08100087  0.81431196  0.45765250     0.09800
Br479      Br  0.04067355  0.88448155  0.41038299    -0.05800
Br480      Br  0.95692308  0.88904460  0.50302025    -0.02700
Br481      Br  0.00801703  0.77166262  0.41123356     0.00100
Br482      Br  0.06573893  0.86439473  0.47466726    -0.04300
C483        C  0.24952028  0.70549089  0.22517908    -0.11700
C484        C  0.22699079  0.69685260  0.21344283     0.03800
C485        C  0.22723134  0.67571542  0.19748651    -0.12200
C486        C  0.24959957  0.66298992  0.19272931     0.18700
C487        C  0.27198209  0.67124176  0.20465560    -0.09200
C488        C  0.27179684  0.69224270  0.22082784    -0.02200
H489        H  0.21008819  0.66981476  0.18783718     0.05200
C490        C  0.24988544  0.64376522  0.17239168     0.20600
H491        H  0.28922334  0.69855407  0.22965115     0.10400
C492        C  0.25110799  0.65193915  0.14735190    -0.15600
C493        C  0.25204431  0.63474685  0.12728204     0.03400
C494        C  0.25142887  0.60879117  0.13207180    -0.10900
C495        C  0.25014659  0.60051998  0.15717225    -0.00900
C496        C  0.24929766  0.61785108  0.17733960    -0.06100
H497        H  0.25180536  0.67185654  0.14345196     0.06400
H498        H  0.24986403  0.58060212  0.16104720     0.09800
Br499      Br  0.30344305  0.65530709  0.19810776    -0.05800
Br500      Br  0.19583957  0.71447031  0.21615295    -0.02700
Br501      Br  0.25584494  0.64778383  0.09383773     0.00100
Br502      Br  0.24734153  0.60549358  0.21119583    -0.04300
C503        C  0.12015235  0.75614370  0.39014239    -0.11700
C504        C  0.11920948  0.74118901  0.36792121     0.03800
C505        C  0.13847905  0.74297015  0.35012106    -0.12200
C506        C  0.15882527  0.75958634  0.35391507     0.18700
C507        C  0.15960992  0.77498348  0.37573845    -0.09200
C508        C  0.14030257  0.77323841  0.39365532    -0.02200
H509        H  0.13765236  0.73126193  0.33323487     0.05200
C510        C  0.17932791  0.75974773  0.33514096     0.20600
H511        H  0.14117771  0.78497848  0.41051065     0.10400
C512        C  0.17850849  0.77640576  0.31480370    -0.15600
C513        C  0.19639800  0.77518665  0.29545901     0.03400
C514        C  0.21548969  0.75710914  0.29640876    -0.10900
C515        C  0.21642237  0.74070051  0.31694899    -0.00900
C516        C  0.19855045  0.74191923  0.33621812    -0.06100
H517        H  0.16349974  0.78989177  0.31362871     0.06400
H518        H  0.23094641  0.72666939  0.31781522     0.09800
Br519      Br  0.18691838  0.79818633  0.38187948    -0.05800
Br520      Br  0.09146411  0.71887292  0.36028214    -0.02700
Br521      Br  0.19283508  0.79718944  0.26721062     0.00100
Br522      Br  0.20062414  0.71846679  0.36337574    -0.04300
C523        C  0.28854016  0.78967456  0.24664302    -0.11700
C524        C  0.29218292  0.80133546  0.22304624     0.03800
C525        C  0.31063029  0.82022011  0.22059129    -0.12200
C526        C  0.32572534  0.82773726  0.24129336     0.18700
C527        C  0.32226904  0.81588633  0.26472804    -0.09200
C528        C  0.30381486  0.79713903  0.26723068    -0.02200
H529        H  0.31293453  0.82940898  0.20254334     0.05200
C530        C  0.34428655  0.84857988  0.23846377     0.20600
H531        H  0.30144633  0.78820375  0.28540420     0.10400
C532        C  0.34054084  0.87126367  0.25161793    -0.15600
C533        C  0.35796665  0.89111885  0.25002562     0.03400
C534        C  0.37948020  0.88860404  0.23480580    -0.10900
C535        C  0.38297872  0.86613545  0.22121385    -0.00900
C536        C  0.36568630  0.84614572  0.22305255    -0.06100
H537        H  0.32401602  0.87346029  0.26330766     0.06400
H538        H  0.39954049  0.86394180  0.20957878     0.09800
Br539      Br  0.34273552  0.82417680  0.29373899    -0.05800
Br540      Br  0.27153515  0.79345585  0.19404381    -0.02700
Br541      Br  0.35126053  0.92152036  0.26845492     0.00100
Br542      Br  0.37275276  0.81547667  0.20526202    -0.04300
C543        C  0.79059575  0.94305980  0.43936602    -0.11700
C544        C  0.79129384  0.96907751  0.44546794     0.03800
C545        C  0.81372834  0.98052259  0.45457472    -0.12200
C546        C  0.83628203  0.96707208  0.45599909     0.18700
C547        C  0.83559685  0.94133876  0.44884608    -0.09200
C548        C  0.81295642  0.92960306  0.44206933    -0.02200
H549        H  0.81354897  0.00010999  0.46024037     0.05200
C550        C  0.86006290  0.97879504  0.46647341     0.20600
H551        H  0.81318342  0.90964285  0.43797856     0.10400
C552        C  0.87335077  0.96491055  0.48417414    -0.15600
C553        C  0.89871732  0.96956305  0.48880270     0.03400
C554        C  0.91032766  0.99217586  0.48080934    -0.10900
C555        C  0.89585276  0.00841891  0.46593279    -0.00900
C556        C  0.87137680  0.00129878  0.45763462    -0.06100
H557        H  0.86478106  0.94816611  0.49201556     0.06400
H558        H  0.90416293  0.02580756  0.45934368     0.09800
Br559      Br  0.86509074  0.92091499  0.44582084    -0.05800
Br560      Br  0.76327042  0.99063357  0.43982862    -0.02700
Br561      Br  0.91600828  0.94137423  0.50192040     0.00100
Br562      Br  0.85544731  0.02191829  0.43295872    -0.04300
C563        C  0.64015766  0.75869634  0.10832890    -0.11700
C564        C  0.63849773  0.76899834  0.13293127     0.03800
C565        C  0.65872452  0.76703787  0.14975845    -0.12200
C566        C  0.68063960  0.75457335  0.14257432     0.18700
C567        C  0.68236990  0.74430606  0.11798067    -0.09200
C568        C  0.66216826  0.74641145  0.10103143    -0.02200
H569        H  0.65714456  0.77472869  0.16874043     0.05200
C570        C  0.70103697  0.75182154  0.16141095     0.20600
H571        H  0.66346007  0.73812965  0.08227778     0.10400
C572        C  0.70353230  0.72898945  0.17409196    -0.15600
C573        C  0.72142812  0.72638858  0.19342709     0.03400
C574        C  0.73729644  0.74686963  0.20018044    -0.10900
C575        C  0.73491942  0.76957480  0.18716254    -0.00900
C576        C  0.71695550  0.77217481  0.16799730    -0.06100
H577        H  0.69104441  0.71338053  0.16938906     0.06400
H578        H  0.74694542  0.78546392  0.19214077     0.09800
Br579      Br  0.71191605  0.72725969  0.10691622    -0.05800
Br580      Br  0.60833525  0.78423721  0.14504539    -0.02700
Br581      Br  0.72192844  0.69525097  0.21127608     0.00100
Br582      Br  0.71466946  0.80389573  0.15141318    -0.04300
C583        C  0.81244064  0.70940964  0.24328666    -0.11700
C584        C  0.83102931  0.70613032  0.22468085     0.03800
C585        C  0.84920875  0.68758571  0.22769014    -0.12200
C586        C  0.84914386  0.67216992  0.24907259     0.18700
C587        C  0.83076215  0.67567671  0.26776829    -0.09200
C588        C  0.81267299  0.69419334  0.26480245    -0.02200
H589        H  0.86342928  0.68512699  0.21330260     0.05200
C590        C  0.86781836  0.65198116  0.25128492     0.20600
H591        H  0.79850853  0.69657832  0.27926618     0.10400
C592        C  0.88753343  0.65439441  0.26896524    -0.15600
C593        C  0.90520354  0.63532099  0.27167264     0.03400
C594        C  0.90310497  0.61329455  0.25668771    -0.10900
C595        C  0.88335424  0.61099738  0.23900688    -0.00900
C596        C  0.86584573  0.63010525  0.23619987    -0.06100
H597        H  0.88930872  0.67128149  0.28047235     0.06400
H598        H  0.88166038  0.59430064  0.22720585     0.09800
Br599      Br  0.82910585  0.65500791  0.29721215    -0.05800
Br600      Br  0.83304293  0.72720364  0.19555853    -0.02700
Br601      Br  0.93275216  0.64102285  0.29473248     0.00100
Br602      Br  0.83932296  0.62539484  0.21176595    -0.04300
C603        C  0.77004170  0.78373196  0.28144968    -0.11700
C604        C  0.77361806  0.77800151  0.30726946     0.03800
C605        C  0.77234606  0.79703143  0.32564364    -0.12200
C606        C  0.76560304  0.82155708  0.31927933     0.18700
C607        C  0.76144930  0.82718364  0.29355466    -0.09200
C608        C  0.76422595  0.80851756  0.27499618    -0.02200
H609        H  0.77576972  0.79240378  0.34525740     0.05200
C610        C  0.76250754  0.84063952  0.33979656     0.20600
H611        H  0.76138741  0.81337913  0.25534925     0.10400
C612        C  0.77535572  0.86378845  0.33844870    -0.15600
C613        C  0.77188152  0.88263430  0.35674010     0.03400
C614        C  0.75683829  0.87778123  0.37820677    -0.10900
C615        C  0.74481934  0.85418155  0.37996793    -0.00900
C616        C  0.74683239  0.83609147  0.36076546    -0.06100
H617        H  0.78756756  0.86757677  0.32256651     0.06400
H618        H  0.73319316  0.84989527  0.39615639     0.09800
Br619      Br  0.75026066  0.85940493  0.28251467    -0.05800
Br620      Br  0.77749145  0.74434757  0.31926602    -0.02700
Br621      Br  0.78592553  0.91517343  0.34946567     0.00100
Br622      Br  0.72600952  0.80647297  0.36344916    -0.04300
C623        C  0.80359857  0.03949525  0.57160766    -0.11700
C624        C  0.81913409  0.04048939  0.55010181     0.03800
C625        C  0.84266163  0.02909482  0.55054158    -0.12200
C626        C  0.85103721  0.01652619  0.57211164     0.18700
C627        C  0.83537168  0.01498048  0.59338303    -0.09200
C628        C  0.81188409  0.02654383  0.59306609    -0.02200
H629        H  0.85470647  0.03039909  0.53412086     0.05200
C630        C  0.87663396  0.00615048  0.57202607     0.20600
H631        H  0.80014836  0.02570784  0.60973148     0.10400
C632        C  0.89719128  0.02242479  0.57612061    -0.15600
C633        C  0.92167995  0.01468532  0.57094134     0.03400
C634        C  0.92576778  0.99033332  0.56091692    -0.10900
C635        C  0.90541550  0.97316100  0.56028135    -0.00900
C636        C  0.88092291  0.98102385  0.56520874    -0.06100
H637        H  0.89405022  0.04160550  0.58224858     0.06400
H638        H  0.90810516  0.95405648  0.55385033     0.09800
Br639      Br  0.84562744  0.99780245  0.62330966    -0.05800
Br640      Br  0.80995517  0.05859771  0.52034705    -0.02700
Br641      Br  0.94838170  0.03845625  0.57773933     0.00100
Br642      Br  0.85368572  0.95757728  0.55981526    -0.04300
C643        C  0.74460694  0.21050548  0.69742895    -0.11700
C644        C  0.75276390  0.18704403  0.70597277     0.03800
C645        C  0.75474274  0.16694327  0.68885274    -0.12200
C646        C  0.74876940  0.16999958  0.66320710     0.18700
C647        C  0.74057442  0.19346572  0.65470391    -0.09200
C648        C  0.73863440  0.21355986  0.67180799    -0.02200
H649        H  0.76110127  0.14893072  0.69549692     0.05200
C650        C  0.75092512  0.14847967  0.64556913     0.20600
H651        H  0.73240772  0.23161242  0.66513703     0.10400
C652        C  0.73123058  0.13081940  0.64393018    -0.15600
C653        C  0.73233562  0.11047428  0.62699507     0.03400
C654        C  0.75332396  0.10786014  0.61088707    -0.10900
C655        C  0.77326339  0.12543531  0.61304125    -0.00900
C656        C  0.77228147  0.14546497  0.63035270    -0.06100
H657        H  0.71498087  0.13280271  0.65604152     0.06400
H658        H  0.78966237  0.12366021  0.60110972     0.09800
Br659      Br  0.73164467  0.19873870  0.61998044    -0.05800
Br660      Br  0.76197870  0.18194044  0.74067091    -0.02700
Br661      Br  0.70546114  0.08607598  0.62824935     0.00100
Br662      Br  0.80060497  0.16807704  0.63297238    -0.04300
C663        C  0.70055497  0.25594679  0.76692122    -0.11700
C664        C  0.68449843  0.27673731  0.76826021     0.03800
C665        C  0.66629384  0.27798919  0.78722174    -0.12200
C666        C  0.66386052  0.25875332  0.80495771     0.18700
C667        C  0.67950220  0.23771497  0.80324965    -0.09200
C668        C  0.69764195  0.23643470  0.78428929    -0.02200
H669        H  0.65401800  0.29402936  0.78819788     0.05200
C670        C  0.64487868  0.26081776  0.82508561     0.20600
H671        H  0.70996898  0.22042151  0.78346835     0.10400
C672        C  0.62363142  0.24498468  0.82416164    -0.15600
C673        C  0.60590347  0.24553643  0.84353778     0.03400
C674        C  0.60926990  0.26226683  0.86419417    -0.10900
C675        C  0.63015696  0.27862798  0.86476692    -0.00900
C676        C  0.64800340  0.27792458  0.84542526    -0.06100
H677        H  0.62101739  0.23195863  0.80844855     0.06400
H678        H  0.63297648  0.29138758  0.88066375     0.09800
Br679      Br  0.67753417  0.21084226  0.82704999    -0.05800
Br680      Br  0.68613014  0.30336132  0.74416963    -0.02700
Br681      Br  0.57723606  0.22332888  0.84073016     0.00100
Br682      Br  0.67702187  0.29959635  0.84824153    -0.04300
C683        C  0.89030534  0.36779730  0.74731041    -0.11700
C684        C  0.87076817  0.36872052  0.76529621     0.03800
C685        C  0.85026159  0.35208614  0.76310342    -0.12200
C686        C  0.84872739  0.33457706  0.74313892     0.18700
C687        C  0.86827316  0.33338047  0.72539306    -0.09200
C688        C  0.88885399  0.34986375  0.72760470    -0.02200
H689        H  0.83513502  0.35316254  0.77671462     0.05200
C690        C  0.82632989  0.31806388  0.74086121     0.20600
H691        H  0.90368954  0.34889823  0.71366731     0.10400
C692        C  0.80805742  0.32307483  0.72240080    -0.15600
C693        C  0.78661472  0.30772322  0.71984661     0.03400
C694        C  0.78330824  0.28716003  0.73597716    -0.10900
C695        C  0.80145592  0.28226543  0.75452946    -0.00900
C696        C  0.82291884  0.29752980  0.75703294    -0.06100
H697        H  0.81053324  0.33893736  0.70996554     0.06400
H698        H  0.79905183  0.26630877  0.76686135     0.09800
Br699      Br  0.86762463  0.30950516  0.69791932    -0.05800
Br700      Br  0.86988271  0.39345651  0.79198347    -0.02700
Br701      Br  0.76224411  0.31544511  0.69431706     0.00100
Br702      Br  0.84750795  0.28919497  0.78213303    -0.04300
C703        C  0.38139171  0.26094775  0.12619141    -0.11700
C704        C  0.37966163  0.24346959  0.14605240     0.03800
C705        C  0.35912040  0.24393298  0.16248186    -0.12200
C706        C  0.34031283  0.26187751  0.15986529     0.18700
C707        C  0.34288903  0.28042854  0.14127336    -0.09200
C708        C  0.36321350  0.27977129  0.12451223    -0.02200
H709        H  0.35762238  0.22999414  0.17718690     0.05200
C710        C  0.31772034  0.26017053  0.17604643     0.20600
H711        H  0.36448646  0.29365539  0.10974257     0.10400
C712        C  0.31943141  0.26703961  0.20172629    -0.15600
C713        C  0.29872666  0.26402794  0.21775725     0.03400
C714        C  0.27594571  0.25396553  0.20813961    -0.10900
C715        C  0.27413638  0.24737653  0.18242322    -0.00900
C716        C  0.29482965  0.25029883  0.16640554    -0.06100
H717        H  0.33699527  0.27446978  0.20935363     0.06400
H718        H  0.25679089  0.23926542  0.17496531     0.09800
Br719      Br  0.31907022  0.30692664  0.13823463    -0.05800
Br720      Br  0.40529664  0.21925616  0.15240526    -0.02700
Br721      Br  0.30232836  0.27353665  0.25271900     0.00100
Br722      Br  0.29146206  0.23920933  0.13184894    -0.04300
C723        C  0.09911168  0.36990758  0.25968285    -0.11700
C724        C  0.12463076  0.37612915  0.25573442     0.03800
C725        C  0.14235555  0.35712425  0.25344421    -0.12200
C726        C  0.13506092  0.33182413  0.25501607     0.18700
C727        C  0.10962374  0.32555916  0.25919852    -0.09200
C728        C  0.09179648  0.34458298  0.26132196    -0.02200
H729        H  0.16188419  0.36206710  0.25013195     0.05200
C730        C  0.15434369  0.31235068  0.25189784     0.20600
H731        H  0.07220144  0.33963542  0.26419842     0.10400
C732        C  0.16677689  0.30335777  0.27330879    -0.15600
C733        C  0.18621686  0.28605461  0.27091153     0.03400
C734        C  0.19337590  0.27728909  0.24665362    -0.10900
C735        C  0.18079923  0.28637823  0.22524935    -0.00900
C736        C  0.16145833  0.30378151  0.22773101    -0.06100
H737        H  0.16168330  0.31025330  0.29192023     0.06400
H738        H  0.18603677  0.27990409  0.20653468     0.09800
Br739      Br  0.09851236  0.29131411  0.26178796    -0.05800
Br740      Br  0.13597436  0.41026105  0.25211778    -0.02700
Br741      Br  0.20346757  0.27669330  0.30132494     0.00100
Br742      Br  0.14534986  0.31559079  0.19766605    -0.04300
C743        C  0.07844063  0.00752038  0.44703853    -0.11700
C744        C  0.08806172  0.03183193  0.44257098     0.03800
C745        C  0.11201829  0.03501849  0.43229900    -0.12200
C746        C  0.12708316  0.01428348  0.42689372     0.18700
C747        C  0.11722254  0.98990165  0.43047892    -0.09200
C748        C  0.09287078  0.98668693  0.44008121    -0.02200
H749        H  0.11944903  0.05384536  0.42966973     0.05200
C750        C  0.15371133  0.01889584  0.42007893     0.20600
H751        H  0.08613253  0.96791209  0.44428174     0.10400
C752        C  0.16978897  0.03021583  0.43817554    -0.15600
C753        C  0.19440704  0.03730348  0.43200669     0.03400
C754        C  0.20347075  0.03275462  0.40740146    -0.10900
C755        C  0.18751591  0.02099568  0.38941544    -0.00900
C756        C  0.16275918  0.01421714  0.39551277    -0.06100
H757        H  0.16282430  0.03434952  0.45698917     0.06400
H758        H  0.19408107  0.01794917  0.37025571     0.09800
Br759      Br  0.13734767  0.96066670  0.42559470    -0.05800
Br760      Br  0.06994244  0.06137773  0.45165812    -0.02700
Br761      Br  0.21387443  0.05550056  0.45701671     0.00100
Br762      Br  0.14142850  0.00063503  0.36918520    -0.04300
C763        C  0.24984562  0.09343617  0.35356348    -0.11700
C764        C  0.26308979  0.11648570  0.35687607     0.03800
C765        C  0.25980469  0.13582418  0.33953676    -0.12200
C766        C  0.24259911  0.13337587  0.31942057     0.18700
C767        C  0.22932783  0.11052223  0.31603395    -0.09200
C768        C  0.23336457  0.09074089  0.33269508    -0.02200
H769        H  0.27011517  0.15334078  0.34230624     0.05200
C770        C  0.23868338  0.15505029  0.30252140     0.20600
H771        H  0.22290491  0.07334832  0.32973960     0.10400
C772        C  0.24400926  0.15269358  0.27662690    -0.15600
C773        C  0.24164746  0.17312907  0.26040387     0.03400
C774        C  0.23473644  0.19683049  0.27023567    -0.10900
C775        C  0.22887692  0.19895042  0.29607297    -0.00900
C776        C  0.23048211  0.17833506  0.31208194    -0.06100
H777        H  0.25002485  0.13481206  0.26897390     0.06400
H778        H  0.22329090  0.21686234  0.30399292     0.09800
Br779      Br  0.20400955  0.10601372  0.29027738    -0.05800
Br780      Br  0.28375294  0.12426581  0.38590280    -0.02700
Br781      Br  0.24655230  0.16698243  0.22489575     0.00100
Br782      Br  0.22045301  0.18284722  0.34667495    -0.04300
C783        C  0.95901458  0.41578016  0.79301206    -0.11700
C784        C  0.98543163  0.41913922  0.79470716     0.03800
C785        C  0.99665039  0.42702111  0.81769025    -0.12200
C786        C  0.98201667  0.43124442  0.83930435     0.18700
C787        C  0.95589408  0.42673632  0.83791287    -0.09200
C788        C  0.94467755  0.41920420  0.81503127    -0.02200
H789        H  0.01676475  0.43043366  0.81854525     0.05200
C790        C  0.99309402  0.44386545  0.86205275     0.20600
H791        H  0.92443613  0.41672561  0.81431209     0.10400
C792        C  0.98777491  0.46922761  0.86576631    -0.15600
C793        C  0.99295801  0.48127337  0.88880668     0.03400
C794        C  0.00478690  0.46834127  0.90867587    -0.10900
C795        C  0.01150312  0.44317031  0.90449693    -0.00900
C796        C  0.00566569  0.43087039  0.88135578    -0.06100
H797        H  0.97785030  0.47929631  0.85115247     0.06400
H798        H  0.02000789  0.43269160  0.91968166     0.09800
Br799      Br  0.93457022  0.43151786  0.86672639    -0.05800
Br800      Br  0.00722023  0.41244584  0.76670169    -0.02700
Br801      Br  0.98037697  0.51448105  0.89249555     0.00100
Br802      Br  0.01332045  0.39600658  0.87749356    -0.04300
C803        C  0.96812771  0.56499571  0.21113253    -0.11700
C804        C  0.97986149  0.58502280  0.19814879     0.03800
C805        C  0.98829236  0.58152806  0.17330620    -0.12200
C806        C  0.98543152  0.55824014  0.16098763     0.18700
C807        C  0.97550273  0.53774763  0.17453689    -0.09200
C808        C  0.96688591  0.54122614  0.19938403    -0.02200
H809        H  0.99642212  0.59726869  0.16327400     0.05200
C810        C  0.99157989  0.55606875  0.13366040     0.20600
H811        H  0.95812151  0.52561038  0.20908841     0.10400
C812        C  0.01667085  0.55443453  0.12602420    -0.15600
C813        C  0.02282474  0.55091727  0.10042454     0.03400
C814        C  0.00350286  0.54890696  0.08173541    -0.10900
C815        C  0.97853987  0.55244767  0.08949840    -0.00900
C816        C  0.97252741  0.55586361  0.11506956    -0.06100
H817        H  0.03152925  0.55526269  0.14014998     0.06400
H818        H  0.96330570  0.55092983  0.07584020     0.09800
Br819      Br  0.97271625  0.50491552  0.15950123    -0.05800
Br820      Br  0.98473708  0.61763804  0.21342840    -0.02700
Br821      Br  0.05799928  0.54873934  0.09284302     0.00100
Br822      Br  0.93779846  0.55920105  0.12383406    -0.04300
C823        C  0.03651845  0.42090982  0.21347533    -0.11700
C824        C  0.01358684  0.43414051  0.21140409     0.03800
C825        C  0.00444613  0.44106685  0.18751644    -0.12200
C826        C  0.01644491  0.43342544  0.16520410     0.18700
C827        C  0.03759160  0.41791813  0.16715172    -0.09200
C828        C  0.04796476  0.41288646  0.19079891    -0.02200
H829        H  0.98805603  0.45283109  0.18644207     0.05200
C830        C  0.00976317  0.44492006  0.14055848     0.20600
H831        H  0.06550246  0.40287825  0.19109157     0.10400
C832        C  0.02912799  0.45704069  0.12753386    -0.15600
C833        C  0.02515611  0.46758836  0.10401298     0.03400
C834        C  0.00069946  0.46789494  0.09331398    -0.10900
C835        C  0.98083081  0.45667503  0.10674628    -0.00900
C836        C  0.98525966  0.44482563  0.13002093    -0.06100
H837        H  0.04787352  0.45802485  0.13567731     0.06400
H838        H  0.96199368  0.45651110  0.09883479     0.09800
Br839      Br  0.05323380  0.40291027  0.13802534    -0.05800
Br840      Br  0.99247998  0.44201586  0.23961468    -0.02700
Br841      Br  0.05467234  0.48134708  0.08846679     0.00100
Br842      Br  0.95756017  0.42802856  0.14592339    -0.04300
C843        C  0.09480596  0.53964928  0.00127626    -0.11700
C844        C  0.11471740  0.54294498  0.98400560     0.03800
C845        C  0.13881026  0.54976784  0.99303200    -0.12200
C846        C  0.14309953  0.55415229  0.01896248     0.18700
C847        C  0.12272930  0.55369986  0.03566375    -0.09200
C848        C  0.09897689  0.54663943  0.02681422    -0.02200
H849        H  0.15429947  0.55122983  0.97989152     0.05200
C850        C  0.16882873  0.55832902  0.02889165     0.20600
H851        H  0.08404200  0.54529881  0.04056430     0.10400
C852        C  0.17856108  0.58281045  0.03084132    -0.15600
C853        C  0.20124910  0.58772380  0.04364376     0.03400
C854        C  0.21458076  0.56788158  0.05479840    -0.10900
C855        C  0.20526848  0.54325243  0.05181714    -0.00900
C856        C  0.18253646  0.53841041  0.03913296    -0.06100
H857        H  0.16805660  0.59824521  0.02307326     0.06400
H858        H  0.21512750  0.52782972  0.06042659     0.09800
Br859      Br  0.12669310  0.56115970  0.07112030    -0.05800
Br860      Br  0.11006189  0.53976456  0.94817437    -0.02700
Br861      Br  0.21309322  0.62182709  0.04510940     0.00100
Br862      Br  0.17019808  0.50449480  0.03753789    -0.04300
C863        C  0.92504235  0.45166737  0.01104172    -0.11700
C864        C  0.90450527  0.44841723  0.99399803     0.03800
C865        C  0.88032009  0.44266832  0.00305309    -0.12200
C866        C  0.87582577  0.43955413  0.02896324     0.18700
C867        C  0.89657875  0.44035403  0.04572740    -0.09200
C868        C  0.92074918  0.44656369  0.03681446    -0.02200
H869        H  0.86476243  0.44114921  0.98977797     0.05200
C870        C  0.84942730  0.43554673  0.03795318     0.20600
H871        H  0.93598300  0.44857208  0.05040490     0.10400
C872        C  0.83621410  0.41348231  0.03099391    -0.15600
C873        C  0.81148450  0.40905864  0.03925390     0.03400
C874        C  0.79935717  0.42684128  0.05479016    -0.10900
C875        C  0.81216250  0.44934072  0.06095003    -0.00900
C876        C  0.83685881  0.45385821  0.05255184    -0.06100
H877        H  0.84526034  0.39952622  0.01922528     0.06400
H878        H  0.80306261  0.46328447  0.07269208     0.09800
Br879      Br  0.89280863  0.43307645  0.08099409    -0.05800
Br880      Br  0.90801861  0.45115033  0.95800721    -0.02700
Br881      Br  0.79470997  0.37870266  0.02832665     0.00100
Br882      Br  0.85234937  0.48567760  0.06082260    -0.04300
C883        C  0.95312273  0.19164467  0.43352038    -0.11700
C884        C  0.94956243  0.17876378  0.45641312     0.03800
C885        C  0.95981103  0.15487891  0.45962310    -0.12200
C886        C  0.97357086  0.14326599  0.44024107     0.18700
C887        C  0.97715952  0.15605265  0.41735387    -0.09200
C888        C  0.96692186  0.17997738  0.41411224    -0.02200
H889        H  0.95678710  0.14515369  0.47724647     0.05200
C890        C  0.98408174  0.11794053  0.44464511     0.20600
H891        H  0.96962577  0.18948072  0.39632789     0.10400
C892        C  0.97168079  0.09643186  0.43501204    -0.15600
C893        C  0.97905944  0.07220674  0.44197665     0.03400
C894        C  0.99928169  0.06916748  0.45929198    -0.10900
C895        C  0.01261571  0.09095960  0.46735260    -0.00900
C896        C  0.00526011  0.11496632  0.46024363    -0.06100
H897        H  0.95538467  0.09855705  0.42258282     0.06400
H898        H  0.02830580  0.08959628  0.48062735     0.09800
Br899      Br  0.99616724  0.14163086  0.39024688    -0.05800
Br900      Br  0.92940735  0.19219937  0.48319350    -0.02700
Br901      Br  0.95995794  0.04454029  0.42778650     0.00100
Br902      Br  0.02405940  0.14336596  0.47318185    -0.04300
C903        C  0.61483614  0.11980135  0.25425866    -0.11700
C904        C  0.61550023  0.13921510  0.23621282     0.03800
C905        C  0.63374326  0.15841204  0.23816003    -0.12200
C906        C  0.65117367  0.15904001  0.25814642     0.18700
C907        C  0.64996343  0.14035242  0.27669046    -0.09200
C908        C  0.63208574  0.12087030  0.27455451    -0.02200
H909        H  0.63427468  0.17301466  0.22406462     0.05200
C910        C  0.67096445  0.17888329  0.25900421     0.20600
H911        H  0.63170334  0.10643382  0.28882119     0.10400
C912        C  0.66574260  0.20252665  0.26957734    -0.15600
C913        C  0.68436189  0.22144222  0.27078043     0.03400
C914        C  0.70863390  0.21672327  0.26143187    -0.10900
C915        C  0.71377810  0.19307505  0.25088230    -0.00900
C916        C  0.69514315  0.17429867  0.24945263    -0.06100
H917        H  0.64719007  0.20621124  0.27699868     0.06400
H918        H  0.73228996  0.18934681  0.24336689     0.09800
Br919      Br  0.67218720  0.14103307  0.30541272    -0.05800
Br920      Br  0.59094224  0.14169113  0.20961072    -0.02700
Br921      Br  0.67611297  0.25314714  0.28590973     0.00100
Br922      Br  0.70330490  0.14280098  0.23381815    -0.04300
C923        C  0.74737189  0.29284460  0.22195540    -0.11700
C924        C  0.75613794  0.31785947  0.22573069     0.03800
C925        C  0.75636250  0.33468815  0.20548633    -0.12200
C926        C  0.74659235  0.32776797  0.18160664     0.18700
C927        C  0.73671136  0.30325031  0.17818271    -0.09200
C928        C  0.73771819  0.28603552  0.19793178    -0.02200
H929        H  0.76391004  0.35346938  0.20853254     0.05200
C930        C  0.74741107  0.34596724  0.16034444     0.20600
H931        H  0.73078527  0.26711946  0.19436339     0.10400
C932        C  0.75938754  0.33910280  0.13771519    -0.15600
C933        C  0.75978192  0.35506193  0.11685155     0.03400
C934        C  0.74906743  0.37912514  0.11863232    -0.10900
C935        C  0.73735341  0.38614751  0.14139735    -0.00900
C936        C  0.73626846  0.36983011  0.16201935    -0.06100
H937        H  0.76806812  0.32088542  0.13606374     0.06400
H938        H  0.72893923  0.40448261  0.14316654     0.09800
Br939      Br  0.72029520  0.29250251  0.14736881    -0.05800
Br940      Br  0.76592399  0.33119779  0.25828710    -0.02700
Br941      Br  0.77328664  0.34192065  0.08589697     0.00100
Br942      Br  0.71823766  0.38073054  0.19144672    -0.04300
C943        C  0.89009142  0.24062408  0.38484623    -0.11700
C944        C  0.86820614  0.22537954  0.38608154     0.03800
C945        C  0.84972980  0.22683183  0.36717079    -0.12200
C946        C  0.85257294  0.24338567  0.34691861     0.18700
C947        C  0.87436105  0.25861874  0.34565132    -0.09200
C948        C  0.89287720  0.25719290  0.36453304    -0.02200
H949        H  0.83284362  0.21534254  0.36850110     0.05200
C950        C  0.83198691  0.24543622  0.32808026     0.20600
H951        H  0.90957052  0.26897897  0.36331164     0.10400
C952        C  0.81499432  0.26519512  0.33042646    -0.15600
C953        C  0.79478796  0.26733218  0.31353701     0.03400
C954        C  0.79139551  0.24960827  0.29375566    -0.10900
C955        C  0.80836302  0.22975891  0.29143919    -0.00900
C956        C  0.82858655  0.22761134  0.30841221    -0.06100
H957        H  0.81726280  0.27878189  0.34569349     0.06400
H958        H  0.80587948  0.21596285  0.27639949     0.09800
Br959      Br  0.87962584  0.28141910  0.31832141    -0.05800
Br960      Br  0.86179674  0.20352716  0.41401404    -0.02700
Br961      Br  0.77147264  0.29392617  0.31914866     0.00100
Br962      Br  0.85129051  0.20028948  0.30398798    -0.04300
C963        C  0.07426800  0.56924805  0.80278165    -0.11700
C964        C  0.08885303  0.57413216  0.82493425     0.03800
C965        C  0.07751701  0.57400097  0.84880620    -0.12200
C966        C  0.05224175  0.56676949  0.85188668     0.18700
C967        C  0.03780328  0.56113835  0.82997444    -0.09200
C968        C  0.04864656  0.56298396  0.80584631    -0.02200
H969        H  0.08901903  0.57810325  0.86538452     0.05200
C970        C  0.04239253  0.56283217  0.87810270     0.20600
H971        H  0.03694447  0.55909614  0.78938407     0.10400
C972        C  0.02059563  0.57501855  0.88664819    -0.15600
C973        C  0.01041862  0.57001596  0.91070912     0.03400
C974        C  0.02277148  0.55361351  0.92729626    -0.10900
C975        C  0.04519824  0.54265001  0.91911976    -0.00900
C976        C  0.05461795  0.54645283  0.89480932    -0.06100
H977        H  0.01096384  0.58785064  0.87422918     0.06400
H978        H  0.05451301  0.52909034  0.93098312     0.09800
Br979      Br  0.00378608  0.54889943  0.83178938    -0.05800
Br980      Br  0.12491641  0.57768991  0.82486313    -0.02700
Br981      Br  0.97917837  0.58506459  0.91978663     0.00100
Br982      Br  0.08242949  0.52612303  0.88446611    -0.04300
C983        C  0.09073505  0.97126652  0.53850531    -0.11700
C984        C  0.11108784  0.98837153  0.54098311     0.03800
C985        C  0.13558806  0.97946941  0.54423200    -0.12200
C986        C  0.14020285  0.95361902  0.54507900     0.18700
C987        C  0.11965986  0.93662805  0.54459602    -0.09200
C988        C  0.09523252  0.94548435  0.54101085    -0.02200
H989        H  0.15123356  0.99271674  0.54489047     0.05200
C990        C  0.16654569  0.94472535  0.54539374     0.20600
H991        H  0.07980084  0.93208994  0.53891667     0.10400
C992        C  0.18052277  0.94638824  0.56788472    -0.15600
C993        C  0.20513957  0.93744877  0.56904417     0.03400
C994        C  0.21636636  0.92665806  0.54733186    -0.10900
C995        C  0.20266578  0.92591340  0.52453912    -0.00900
C996        C  0.17794759  0.93480600  0.52345954    -0.06100
H997        H  0.17209226  0.95433322  0.58473374     0.06400
H998        H  0.21086056  0.91755724  0.50777551     0.09800
Br999      Br  0.12421258  0.90115128  0.54783748    -0.05800
Br1000     Br  0.10678327  0.02378996  0.53697770    -0.02700
Br1001     Br  0.22261627  0.94060971  0.60085367     0.00100
Br1002     Br  0.16030370  0.93282789  0.49172206    -0.04300
C1003       C  0.23053718  0.70341975  0.73536042    -0.11700
C1004       C  0.21383356  0.70175006  0.75595223     0.03800
C1005       C  0.19520146  0.68300115  0.75607968    -0.12200
C1006       C  0.19271226  0.66580639  0.73591199     0.18700
C1007       C  0.20896443  0.66772295  0.71508933    -0.09200
C1008       C  0.22770675  0.68643552  0.71494043    -0.02200
H1009       H  0.18248932  0.68183080  0.77200176     0.05200
C1010       C  0.17326083  0.64582326  0.73739046     0.20600
H1011       H  0.24030671  0.68758423  0.69893137     0.10400
C1012       C  0.15133353  0.64732333  0.72262112    -0.15600
C1013       C  0.13180196  0.62962844  0.72519907     0.03400
C1014       C  0.13411835  0.61015252  0.74283828    -0.10900
C1015       C  0.15622928  0.60850973  0.75729494    -0.00900
C1016       C  0.17573922  0.62608979  0.75464229    -0.06100
H1017       H  0.14919210  0.66263188  0.70949623     0.06400
H1018       H  0.15827488  0.59348373  0.77076818     0.09800
Br1019     Br  0.20670142  0.64475546  0.68691575    -0.05800
Br1020     Br  0.21454129  0.72535328  0.78370480    -0.02700
Br1021     Br  0.10176409  0.63374109  0.70551257     0.00100
Br1022     Br  0.20553667  0.62238156  0.77482702    -0.04300
C1023       C  0.26990054  0.77666456  0.69194213    -0.11700
C1024       C  0.29191281  0.78178480  0.67800058     0.03800
C1025       C  0.29129905  0.79918514  0.65844794    -0.12200
C1026       C  0.26904857  0.81164657  0.65246582     0.18700
C1027       C  0.24704049  0.80642983  0.66624869    -0.09200
C1028       C  0.24762225  0.78906886  0.68580199    -0.02200
H1029       H  0.30817130  0.80276728  0.64758770     0.05200
C1030       C  0.26889897  0.82926308  0.63115385     0.20600
H1031       H  0.23064821  0.78545085  0.69648998     0.10400
C1032       C  0.25424739  0.82334245  0.60969276    -0.15600
C1033       C  0.25302464  0.83984958  0.58942399     0.03400
C1034       C  0.26701713  0.86245373  0.59028578    -0.10900
C1035       C  0.28224622  0.86807033  0.61141260    -0.00900
C1036       C  0.28316375  0.85174297  0.63187702    -0.06100
H1037       H  0.24353508  0.80590897  0.60884757     0.06400
H1038       H  0.29286246  0.88556173  0.61228115     0.09800
Br1039     Br  0.21592790  0.82301865  0.65960190    -0.05800
Br1040     Br  0.32287605  0.76455512  0.68367820    -0.02700
Br1041     Br  0.23232793  0.83056654  0.56087833     0.00100
Br1042     Br  0.30299660  0.86163675  0.66086706    -0.04300
C1043       C  0.39214738  0.76416112  0.87510365    -0.11700
C1044       C  0.39653838  0.77723172  0.85252978     0.03800
C1045       C  0.37873402  0.77577314  0.83290705    -0.12200
C1046       C  0.35642984  0.76171559  0.83578899     0.18700
C1047       C  0.35154166  0.74978861  0.85885739    -0.09200
C1048       C  0.36945254  0.75088879  0.87821699    -0.02200
H1049       H  0.38251229  0.78511612  0.81519674     0.05200
C1050       C  0.33903693  0.75820888  0.81421582     0.20600
H1051       H  0.36581744  0.74108419  0.89570875     0.10400
C1052       C  0.33876671  0.73515712  0.80112643    -0.15600
C1053       C  0.32162240  0.73046002  0.78144894     0.03400
C1054       C  0.30439934  0.74910206  0.77462514    -0.10900
C1055       C  0.30491962  0.77228404  0.78760001    -0.00900
C1056       C  0.32202689  0.77690058  0.80733544    -0.06100
H1057       H  0.35190993  0.72071686  0.80636619     0.06400
H1058       H  0.29175832  0.78675740  0.78250791     0.09800
Br1059     Br  0.32062601  0.73180595  0.86462937    -0.05800
Br1060     Br  0.42697993  0.79615450  0.84737027    -0.02700
Br1061     Br  0.32331520  0.69878898  0.76388669     0.00100
Br1062     Br  0.32097304  0.80853460  0.82495962    -0.04300
C1063       C  0.54239173  0.92235009  0.99924749    -0.11700
C1064       C  0.55553420  0.90508042  0.98397094     0.03800
C1065       C  0.56286402  0.88192626  0.99403635    -0.12200
C1066       C  0.55636151  0.87506329  0.01885995     0.18700
C1067       C  0.54266792  0.89219217  0.03376158    -0.09200
C1068       C  0.53645636  0.91555455  0.02415491    -0.02200
H1069       H  0.57375233  0.86925322  0.98243929     0.05200
C1070       C  0.56497906  0.85081789  0.02961084     0.20600
H1071       H  0.52588367  0.92814656  0.03614324     0.10400
C1072       C  0.57820369  0.85136350  0.05262262    -0.15600
C1073       C  0.58445421  0.82933056  0.06511241     0.03400
C1074       C  0.57996813  0.80557433  0.05336472    -0.10900
C1075       C  0.56739251  0.80508519  0.02976038    -0.00900
C1076       C  0.55935117  0.82727885  0.01825537    -0.06100
H1077       H  0.58261454  0.86924199  0.06168638     0.06400
H1078       H  0.56345691  0.78735504  0.02024980     0.09800
Br1079     Br  0.53029199  0.88441983  0.06693348    -0.05800
Br1080     Br  0.56468150  0.91225206  0.94974005    -0.02700
Br1081     Br  0.59574227  0.83383570  0.09949148     0.00100
Br1082     Br  0.53926741  0.82420486  0.98805543    -0.04300
C1083       C  0.46188216  0.92379698  0.00029178    -0.11700
C1084       C  0.44587465  0.91954737  0.97918678     0.03800
C1085       C  0.43886890  0.89500476  0.97219928    -0.12200
C1086       C  0.44757761  0.87441800  0.98582361     0.18700
C1087       C  0.46220249  0.87866431  0.00774834    -0.09200
C1088       C  0.46895246  0.90319704  0.01499795    -0.02200
H1089       H  0.42744986  0.89189017  0.95538048     0.05200
C1090       C  0.44355044  0.84885843  0.97518330     0.20600
H1091       H  0.48118270  0.90597184  0.03126911     0.10400
C1092       C  0.46400745  0.83658713  0.96416736    -0.15600
C1093       C  0.46064066  0.81378701  0.95111312     0.03400
C1094       C  0.43649982  0.80265828  0.94924732    -0.10900
C1095       C  0.41612253  0.81465056  0.96086141    -0.00900
C1096       C  0.41947391  0.83763198  0.97367008    -0.06100
H1097       H  0.48249379  0.84537915  0.96475715     0.06400
H1098       H  0.39742451  0.80644681  0.95931005     0.09800
Br1099     Br  0.47435354  0.85144419  0.02761693    -0.05800
Br1100     Br  0.43311508  0.94624573  0.95893471    -0.02700
Br1101     Br  0.48905978  0.80022228  0.93378996     0.00100
Br1102     Br  0.39066559  0.85328791  0.98834901    -0.04300
C1103       C  0.54421237  0.00466003  0.07897505    -0.11700
C1104       C  0.56684930  0.01785739  0.08478708     0.03800
C1105       C  0.57212262  0.02559546  0.10983564    -0.12200
C1106       C  0.55569825  0.01978171  0.12977194     0.18700
C1107       C  0.53422576  0.00480493  0.12430633    -0.09200
C1108       C  0.52865891  0.99751062  0.09927834    -0.02200
H1109       H  0.58890371  0.03678942  0.11365808     0.05200
C1110       C  0.56027143  0.03077886  0.15565775     0.20600
H1111       H  0.51135206  0.98707888  0.09567022     0.10400
C1112       C  0.54204190  0.04646008  0.16644504    -0.15600
C1113       C  0.54560455  0.05757116  0.19043782     0.03400
C1114       C  0.56788605  0.05338861  0.20422382    -0.10900
C1115       C  0.58630483  0.03800378  0.19339263    -0.00900
C1116       C  0.58264100  0.02665239  0.16945862    -0.06100
H1117       H  0.52500974  0.05037260  0.15594846     0.06400
H1118       H  0.60363573  0.03478193  0.20364621     0.09800
Br1119     Br  0.51175625  0.99379722  0.15038243    -0.05800
Br1120     Br  0.59153283  0.02575927  0.05962767    -0.02700
Br1121     Br  0.52014317  0.07959464  0.20289465     0.00100
Br1122     Br  0.60846231  0.00512212  0.15686982    -0.04300
C1123       C  0.42517156  0.95422404  0.18532124    -0.11700
C1124       C  0.41466448  0.97794217  0.18110748     0.03800
C1125       C  0.41896849  0.99024274  0.15818459    -0.12200
C1126       C  0.43361565  0.97913675  0.13921114     0.18700
C1127       C  0.44436812  0.95549858  0.14362164    -0.09200
C1128       C  0.43990847  0.94318114  0.16644834    -0.02200
H1129       H  0.41084543  0.00850535  0.15512323     0.05200
C1130       C  0.43858775  0.99277686  0.11540061     0.20600
H1131       H  0.44827550  0.92505208  0.16965524     0.10400
C1132       C  0.45464773  0.01383435  0.11591232    -0.15600
C1133       C  0.46353683  0.02441460  0.09344678     0.03400
C1134       C  0.45654389  0.01353041  0.06971998    -0.10900
C1135       C  0.43801176  0.99433284  0.06947574    -0.00900
C1136       C  0.42904390  0.98402362  0.09199618    -0.06100
H1137       H  0.46130641  0.02133083  0.13392545     0.06400
H1138       H  0.43163824  0.98602476  0.05172153     0.09800
Br1139     Br  0.46627534  0.93982243  0.11956919    -0.05800
Br1140     Br  0.39413181  0.99397653  0.20606586    -0.02700
Br1141     Br  0.48598584  0.05284262  0.09714363     0.00100
Br1142     Br  0.40461496  0.95721766  0.08990707    -0.04300
C1143       C  0.42962570  0.20971096  0.06387150    -0.11700
C1144       C  0.45275568  0.19756585  0.06714166     0.03800
C1145       C  0.45672470  0.17429508  0.05546780    -0.12200
C1146       C  0.43817284  0.16284604  0.04000922     0.18700
C1147       C  0.41477628  0.17464339  0.03729356    -0.09200
C1148       C  0.41064804  0.19783700  0.04928269    -0.02200
H1149       H  0.47458683  0.16513858  0.05824261     0.05200
C1150       C  0.44419735  0.13897406  0.02667117     0.20600
H1151       H  0.39268609  0.20688721  0.04684121     0.10400
C1152       C  0.43081975  0.11670193  0.03213882    -0.15600
C1153       C  0.43883439  0.09339561  0.02266817     0.03400
C1154       C  0.46071421  0.09222683  0.00791269    -0.10900
C1155       C  0.47304628  0.11460570  0.00117571    -0.00900
C1156       C  0.46492181  0.13779597  0.01021795    -0.06100
H1157       H  0.41486743  0.11729132  0.04476647     0.06400
H1158       H  0.48994772  0.11392199  0.98982090     0.09800
Br1159     Br  0.38834481  0.16047085  0.01658362    -0.05800
Br1160     Br  0.47921761  0.21141642  0.08812125    -0.02700
Br1161     Br  0.42081977  0.06357631  0.03208324     0.00100
Br1162     Br  0.48350405  0.16723097  0.00032648    -0.04300
C1163       C  0.55312781  0.08828203  0.97276949    -0.11700
C1164       C  0.56025938  0.10693353  0.99064157     0.03800
C1165       C  0.56599635  0.13124935  0.98251226    -0.12200
C1166       C  0.56472038  0.13721359  0.95676062     0.18700
C1167       C  0.56033553  0.11791908  0.93875954    -0.09200
C1168       C  0.55438239  0.09371603  0.94686761    -0.02200
H1169       H  0.56980884  0.14591169  0.99643058     0.05200
C1170       C  0.56609591  0.16382677  0.94926122     0.20600
H1171       H  0.54896670  0.07951144  0.93295731     0.10400
C1172       C  0.58873632  0.17728550  0.95233656    -0.15600
C1173       C  0.59082940  0.20218323  0.94443190     0.03400
C1174       C  0.57000533  0.21395708  0.93319980    -0.10900
C1175       C  0.54695408  0.20094571  0.93155448    -0.00900
C1176       C  0.54483070  0.17610068  0.93957292    -0.06100
H1177       H  0.60495499  0.16823533  0.96049019     0.06400
H1178       H  0.53079376  0.20980604  0.92307079     0.09800
Br1179     Br  0.56076445  0.12402749  0.90302073    -0.05800
Br1180     Br  0.55888812  0.10127942  0.02640547    -0.02700
Br1181     Br  0.62242530  0.21938703  0.94960015    -0.03100
Br1182     Br  0.51251978  0.15973802  0.93678245    -0.04300
C1183       C  0.05813650  0.19530444  0.57160804    -0.11700
C1184       C  0.03418325  0.19054885  0.58191949     0.03800
C1185       C  0.02244029  0.16694849  0.57820905    -0.12200
C1186       C  0.03428687  0.14791537  0.56421110     0.18700
C1187       C  0.05765293  0.15324751  0.55282859    -0.09200
C1188       C  0.06945630  0.17660626  0.55684449    -0.02200
H1189       H  0.00426665  0.16327272  0.58666461     0.05200
C1190       C  0.02228676  0.12261683  0.56139543     0.20600
H1191       H  0.08774957  0.18014893  0.54857267     0.10400
C1192       C  0.00090806  0.11945795  0.54601817    -0.15600
C1193       C  0.99141793  0.09541379  0.53982513     0.03400
C1194       C  0.00376444  0.07372811  0.54879816    -0.10900
C1195       C  0.02386217  0.07723978  0.56601884    -0.00900
C1196       C  0.03298862  0.10130352  0.57242683    -0.06100
H1197       H  0.99213834  0.13576975  0.53794646     0.06400
H1198       H  0.03337912  0.06118360  0.57371550     0.09800
Br1199     Br  0.07399955  0.12935861  0.53121297    -0.05800
Br1200     Br  0.01736739  0.21542973  0.60180337    -0.02700
Br1201     Br  0.96210091  0.09416389  0.51838085     0.00100
Br1202     Br  0.06068684  0.10413501  0.59577473    -0.04300
C1203       C  0.46207438  0.99536735  0.91309936    -0.11700
C1204       C  0.44032781  0.00953837  0.90785601     0.03800
C1205       C  0.43345424  0.01443296  0.88274209    -0.12200
C1206       C  0.44721303  0.00488022  0.86226720     0.18700
C1207       C  0.46731351  0.98868769  0.86738383    -0.09200
C1208       C  0.47463321  0.98419750  0.89248339    -0.02200
H1209       H  0.41783976  0.02676884  0.87921726     0.05200
C1210       C  0.44232242  0.01473006  0.83634380     0.20600
H1211       H  0.49102228  0.97281811  0.89574527     0.10400
C1212       C  0.46166518  0.02801571  0.82409723    -0.15600
C1213       C  0.45720913  0.04090270  0.80158769     0.03400
C1214       C  0.43284009  0.04113535  0.79096603    -0.10900
C1215       C  0.41361887  0.02714045  0.80264706    -0.00900
C1216       C  0.41822846  0.01381537  0.82496228    -0.06100
H1217       H  0.48011715  0.02934700  0.83271949     0.06400
H1218       H  0.39484533  0.02697790  0.79463535     0.09800
Br1219     Br  0.48555892  0.97250299  0.84069458    -0.05800
Br1220     Br  0.41932252  0.02358437  0.93372056    -0.02700
Br1221     Br  0.48461144  0.05985538  0.78753196     0.00100
Br1222     Br  0.39106748  0.99458361  0.83908325    -0.04300
C1223       C  0.20702442  0.43158778  0.95750607    -0.11700
C1224       C  0.19693602  0.41373926  0.97430067     0.03800
C1225       C  0.17230142  0.41615086  0.98318065    -0.12200
C1226       C  0.15740878  0.43612422  0.97535755     0.18700
C1227       C  0.16781601  0.45447308  0.95935726    -0.09200
C1228       C  0.19242478  0.45207177  0.95047614    -0.02200
H1229       H  0.16467238  0.40232136  0.99600986     0.05200
C1230       C  0.13150324  0.43862518  0.98499650     0.20600
H1231       H  0.19991479  0.46579495  0.93745102     0.10400
C1232       C  0.12796765  0.45224236  0.00732453    -0.15600
C1233       C  0.10404540  0.45987144  0.01459812     0.03400
C1234       C  0.08264670  0.45333915  0.99940855    -0.10900
C1235       C  0.08620838  0.43782016  0.97805339    -0.00900
C1236       C  0.11039204  0.43043742  0.97084845    -0.06100
H1237       H  0.14420345  0.45830952  0.01834922     0.06400
H1238       H  0.07032190  0.43252105  0.96613685     0.09800
Br1239     Br  0.14889808  0.48295223  0.94898577    -0.05800
Br1240     Br  0.21620623  0.38576206  0.98547215    -0.02700
Br1241     Br  0.10360148  0.48186932  0.04366215     0.00100
Br1242     Br  0.11399887  0.41035464  0.94083095    -0.04300
C1243       C  0.21949903  0.24529954  0.71860623    -0.11700
C1244       C  0.21463497  0.26587281  0.70282910     0.03800
C1245       C  0.19640644  0.26370225  0.68364482    -0.12200
C1246       C  0.18279104  0.24121965  0.67973986     0.18700
C1247       C  0.18804956  0.22046889  0.69511978    -0.09200
C1248       C  0.20621619  0.22265524  0.71437140    -0.02200
H1249       H  0.19288924  0.27962593  0.67161568     0.05200
C1250       C  0.16375129  0.23968273  0.65907911     0.20600
H1251       H  0.21002112  0.20658191  0.72610329     0.10400
C1252       C  0.17170147  0.24055838  0.63380247    -0.15600
C1253       C  0.15426029  0.23970233  0.61380071     0.03400
C1254       C  0.12831804  0.23782647  0.61891761    -0.10900
C1255       C  0.12038686  0.23688677  0.64421141    -0.00900
C1256       C  0.13779791  0.23810878  0.66420748    -0.06100
H1257       H  0.19159749  0.24189922  0.62962680     0.06400
H1258       H  0.10047990  0.23591076  0.64843004     0.09800
Br1259     Br  0.17164828  0.18850626  0.68989453    -0.05800
Br1260     Br  0.23340787  0.29681923  0.70571415    -0.02700
Br1261     Br  0.16679804  0.24042388  0.57984669     0.00100
Br1262     Br  0.12519267  0.23909073  0.69816547    -0.04300
C1263       C  0.29889958  0.21471736  0.75849181    -0.11700
C1264       C  0.31636395  0.21230001  0.73870437     0.03800
C1265       C  0.33468335  0.19371894  0.73981078    -0.12200
C1266       C  0.33588024  0.17737241  0.76043829     0.18700
C1267       C  0.31916241  0.18057498  0.78073942    -0.09200
C1268       C  0.30089011  0.19914343  0.77964302    -0.02200
H1269       H  0.34775617  0.19166387  0.72429632     0.05200
C1270       C  0.35352021  0.15613705  0.75965660     0.20600
H1271       H  0.28767049  0.20096210  0.79506244     0.10400
C1272       C  0.37399143  0.15554347  0.77655159    -0.15600
C1273       C  0.39094424  0.13562226  0.77588149     0.03400
C1274       C  0.38753659  0.11601423  0.75801688    -0.10900
C1275       C  0.36693824  0.11657165  0.74133045    -0.00900
C1276       C  0.34997521  0.13632132  0.74207510    -0.06100
H1277       H  0.37692133  0.17075514  0.79007905     0.06400
H1278       H  0.36412680  0.10157264  0.72753250     0.09800
Br1279     Br  0.31956448  0.15912870  0.80964399    -0.05800
Br1280     Br  0.31635376  0.23430697  0.71023245    -0.02700
Br1281     Br  0.41916962  0.13669855  0.79863002     0.00100
Br1282     Br  0.32194312  0.13512222  0.71901619    -0.04300
C1283       C  0.25241319  0.28497395  0.79941967    -0.11700
C1284       C  0.25879177  0.27943582  0.82479372     0.03800
C1285       C  0.25887196  0.29847634  0.84327533    -0.12200
C1286       C  0.25103173  0.32282119  0.83759435     0.18700
C1287       C  0.24300185  0.32791170  0.81269527    -0.09200
C1288       C  0.24425808  0.30929245  0.79387252    -0.02200
H1289       H  0.26491863  0.29415410  0.86231222     0.05200
C1290       C  0.25215137  0.34277572  0.85755627     0.20600
H1291       H  0.23896677  0.31399594  0.77471127     0.10400
C1292       C  0.26561753  0.36509084  0.85285944    -0.15600
C1293       C  0.26629895  0.38485957  0.87052431     0.03400
C1294       C  0.25476017  0.38194594  0.89434033    -0.10900
C1295       C  0.24192273  0.35926403  0.89933474    -0.00900
C1296       C  0.24012098  0.34002149  0.88111982    -0.06100
H1297       H  0.27505530  0.36748110  0.83492054     0.06400
H1298       H  0.23275775  0.35664897  0.91738571     0.09800
Br1299     Br  0.22910615  0.35960397  0.80341925    -0.05800
Br1300     Br  0.26558733  0.24604271  0.83616326    -0.02700
Br1301     Br  0.28084066  0.41610167  0.85967670     0.00100
Br1302     Br  0.21950408  0.31127949  0.88894001    -0.04300
C1303       C  0.79337497  0.56957641  0.95583773    -0.11700
C1304       C  0.79553891  0.55883426  0.98025568     0.03800
C1305       C  0.81928096  0.55277646  0.99001563    -0.12200
C1306       C  0.84137918  0.55899867  0.97702186     0.18700
C1307       C  0.83933510  0.57160601  0.95378566    -0.09200
C1308       C  0.81577609  0.57565114  0.94303926    -0.02200
H1309       H  0.82043740  0.54310791  0.00788631     0.05200
C1310       C  0.86621070  0.54997222  0.98601049     0.20600
H1311       H  0.81526365  0.58363361  0.92432822     0.10400
C1312       C  0.88080252  0.53667110  0.96862496    -0.15600
C1313       C  0.90553720  0.53065364  0.97398211     0.03400
C1314       C  0.91560884  0.53535885  0.99841752    -0.10900
C1315       C  0.90046459  0.54680462  0.01677536    -0.00900
C1316       C  0.87610039  0.55478443  0.01055466    -0.06100
H1317       H  0.87325907  0.53204421  0.95002650     0.06400
H1318       H  0.90799725  0.55059434  0.03554601     0.09800
Br1319     Br  0.86808209  0.58460339  0.93595510    -0.05800
Br1320     Br  0.76767531  0.55359508  0.00257337    -0.02700
Br1321     Br  0.92432733  0.51696102  0.94619467     0.00100
Br1322     Br  0.85815627  0.57359969  0.03559346    -0.04300
C1323       C  0.95350128  0.79480627  0.57541852    -0.11700
C1324       C  0.95157171  0.80681180  0.55186817     0.03800
C1325       C  0.96456017  0.82949655  0.54779406    -0.12200
C1326       C  0.97961305  0.84067297  0.56689296     0.18700
C1327       C  0.98175849  0.82851569  0.59031876    -0.09200
C1328       C  0.96871621  0.80586598  0.59443435    -0.02200
H1329       H  0.96255859  0.83869050  0.52975089     0.05200
C1330       C  0.99197759  0.86544911  0.56222541     0.20600
H1331       H  0.97040029  0.79683976  0.61261678     0.10400
C1332       C  0.98354510  0.88690706  0.57506122    -0.15600
C1333       C  0.99237445  0.91100831  0.56878696     0.03400
C1334       C  0.00987712  0.91409188  0.54879824    -0.10900
C1335       C  0.01974905  0.89219481  0.53752955    -0.00900
C1336       C  0.01091012  0.86820390  0.54397366    -0.06100
H1337       H  0.96924722  0.88496146  0.58945532     0.06400
H1338       H  0.03338659  0.89367320  0.52245866     0.09800
Br1339     Br  0.00275377  0.84185690  0.61699614    -0.05800
Br1340     Br  0.93020132  0.79384103  0.52527875    -0.02700
Br1341     Br  0.97853042  0.93842335  0.58781382     0.00100
Br1342     Br  0.02462868  0.83963938  0.52678769    -0.04300
C1343       C  0.75081676  0.71781207  0.80030374    -0.11700
C1344       C  0.74250821  0.72326494  0.82517368     0.03800
C1345       C  0.74072635  0.70410139  0.84307517    -0.12200
C1346       C  0.74849561  0.67957579  0.83745482     0.18700
C1347       C  0.75753309  0.67428755  0.81290783    -0.09200
C1348       C  0.75814841  0.69310200  0.79462157    -0.02200
H1349       H  0.73372536  0.70854546  0.86177768     0.05200
C1350       C  0.74696394  0.65988923  0.85733297     0.20600
H1351       H  0.76462061  0.68832338  0.77580937     0.10400
C1352       C  0.73380003  0.63736070  0.85218659    -0.15600
C1353       C  0.73306193  0.61783223  0.86971829     0.03400
C1354       C  0.74414153  0.62119896  0.89402141    -0.10900
C1355       C  0.75654720  0.64420061  0.89942600    -0.00900
C1356       C  0.75856732  0.66308754  0.88127104    -0.06100
H1357       H  0.72472383  0.63456712  0.83395915     0.06400
H1358       H  0.76528715  0.64740163  0.91774649     0.09800
Br1359     Br  0.77076794  0.64216144  0.80351160    -0.05800
Br1360     Br  0.73559852  0.75670614  0.83696760    -0.02700
Br1361     Br  0.71914164  0.58635545  0.85771154     0.00100
Br1362     Br  0.77912910  0.69195289  0.88966574    -0.04300
C1363       C  0.79464114  0.75369873  0.72438594    -0.11700
C1364       C  0.79899966  0.73165398  0.71003298     0.03800
C1365       C  0.81762022  0.73150400  0.69137558    -0.12200
C1366       C  0.83256801  0.75288779  0.68681686     0.18700
C1367       C  0.82847567  0.77482190  0.70139381    -0.09200
C1368       C  0.80954890  0.77513264  0.71979861    -0.02200
H1369       H  0.82020825  0.71465868  0.68006685     0.05200
C1370       C  0.85155817  0.75218528  0.66617054     0.20600
H1371       H  0.80655353  0.79215506  0.73071545     0.10400
C1372       C  0.84915539  0.76843728  0.64556672    -0.15600
C1373       C  0.86649978  0.76822722  0.62567486     0.03400
C1374       C  0.88675891  0.75140301  0.62603871    -0.10900
C1375       C  0.88883794  0.73477489  0.64635338    -0.00900
C1376       C  0.87154159  0.73503111  0.66626052    -0.06100
H1377       H  0.83351700  0.78122807  0.64484368     0.06400
H1378       H  0.90427328  0.72172815  0.64692916     0.09800
Br1379     Br  0.84875963  0.80458969  0.69748540    -0.05800
Br1380     Br  0.77910028  0.70160381  0.71388632    -0.02700
Br1381     Br  0.86073499  0.79027602  0.59783533     0.00100
Br1382     Br  0.87669742  0.71213435  0.69350224    -0.04300
C1383       C  0.57781851  0.95445262  0.79873395    -0.11700
C1384       C  0.55910122  0.94771010  0.81620623     0.03800
C1385       C  0.55716547  0.96083233  0.83919474    -0.12200
C1386       C  0.57367137  0.98080712  0.84525222     0.18700
C1387       C  0.59242204  0.98765701  0.82783207    -0.09200
C1388       C  0.59443872  0.97442974  0.80475961    -0.02200
H1389       H  0.54268625  0.95541546  0.85248455     0.05200
C1390       C  0.57015642  0.99426806  0.86968548     0.20600
H1391       H  0.60905186  0.97964772  0.79154647     0.10400
C1392       C  0.58152493  0.98523923  0.89173222    -0.15600
C1393       C  0.57367461  0.99335218  0.91579608     0.03400
C1394       C  0.55340837  0.01022840  0.91799152    -0.10900
C1395       C  0.54437652  0.02139793  0.89568502    -0.00900
C1396       C  0.55250723  0.01350850  0.87179396    -0.06100
H1397       H  0.59567919  0.97089132  0.89024211     0.06400
H1398       H  0.52947933  0.03501677  0.89656195     0.09800
Br1399     Br  0.61548165  0.01483936  0.83490425    -0.05800
Br1400     Br  0.53611933  0.92031672  0.80965786    -0.02700
Br1401     Br  0.59094950  0.97993481  0.94451099     0.00100
Br1402     Br  0.53740562  0.02796688  0.84243276    -0.04300
C1403       C  0.61929928  0.88474426  0.75152283    -0.11700
C1404       C  0.64041760  0.88582728  0.73555110     0.03800
C1405       C  0.65802426  0.86652069  0.73582028    -0.12200
C1406       C  0.65504582  0.84586369  0.75182635     0.18700
C1407       C  0.63398150  0.84482746  0.76793774    -0.09200
C1408       C  0.61633995  0.86416052  0.76765356    -0.02200
H1409       H  0.67436947  0.86780522  0.72372777     0.05200
C1410       C  0.67511326  0.82672560  0.75266453     0.20600
H1411       H  0.60034799  0.86325468  0.78024234     0.10400
C1412       C  0.69899542  0.83382397  0.76194404    -0.15600
C1413       C  0.71852469  0.81650037  0.76309816     0.03400
C1414       C  0.71431938  0.79147193  0.75509350    -0.10900
C1415       C  0.69056335  0.78438734  0.74549262    -0.00900
C1416       C  0.67113603  0.80186497  0.74387410    -0.06100
H1417       H  0.70240223  0.85291540  0.76847768     0.06400
H1418       H  0.68722797  0.76527957  0.73898413     0.09800
Br1419     Br  0.62921017  0.81819107  0.79164150    -0.05800
Br1420     Br  0.64692655  0.91409929  0.71428228    -0.02700
Br1421     Br  0.75043274  0.82768845  0.77643686     0.00100
Br1422     Br  0.63997661  0.79125622  0.72842570    -0.04300
C1423       C  0.45183844  0.30073084  0.07685077    -0.11700
C1424       C  0.46476948  0.31483469  0.09576102     0.03800
C1425       C  0.47826845  0.33656741  0.08929989    -0.12200
C1426       C  0.47932222  0.34454420  0.06414802     0.18700
C1427       C  0.46744666  0.32989028  0.04509304    -0.09200
C1428       C  0.45390168  0.30817736  0.05150731    -0.02200
H1429       H  0.48744401  0.34768026  0.10404452     0.05200
C1430       C  0.49008256  0.36963683  0.05859996     0.20600
H1431       H  0.44426890  0.29750664  0.03673127     0.10400
C1432       C  0.51408444  0.37213648  0.04798782    -0.15600
C1433       C  0.52347659  0.39574006  0.04069314     0.03400
C1434       C  0.50837954  0.41731152  0.04361775    -0.10900
C1435       C  0.48505131  0.41467279  0.05585535    -0.00900
C1436       C  0.47593131  0.39122096  0.06326665    -0.06100
H1437       H  0.52532889  0.35559227  0.04492548     0.06400
H1438       H  0.47313855  0.43077123  0.05868133     0.09800
Br1439     Br  0.46796612  0.33957252  0.01028376    -0.05800
Br1440     Br  0.46529058  0.30501507  0.13057546    -0.02700
Br1441     Br  0.55669121  0.39678638  0.02655524     0.00100
Br1442     Br  0.44320400  0.38926819  0.07830123    -0.04300
C1443       C  0.49401186  0.41937405  0.95910655    -0.11700
C1444       C  0.47790051  0.39798968  0.96013847     0.03800
C1445       C  0.48569248  0.37504341  0.94964947    -0.12200
C1446       C  0.50918903  0.37298833  0.93794289     0.18700
C1447       C  0.52423663  0.39460556  0.93504628    -0.09200
C1448       C  0.51657329  0.41745900  0.94538250    -0.02200
H1449       H  0.47388907  0.35846427  0.95164965     0.05200
C1450       C  0.51929101  0.34797027  0.93159317     0.20600
H1451       H  0.52921391  0.43347831  0.94387485     0.10400
C1452       C  0.51841292  0.33893196  0.90658127    -0.15600
C1453       C  0.53054707  0.31665357  0.89978883     0.03400
C1454       C  0.54411566  0.30322110  0.91820870    -0.10900
C1455       C  0.54406390  0.31190369  0.94338373    -0.00900
C1456       C  0.53185593  0.33403125  0.95010881    -0.06100
H1457       H  0.50864655  0.34947574  0.89223960     0.06400
H1458       H  0.55436342  0.30191617  0.95776644     0.09800
Br1459     Br  0.55657168  0.39332367  0.91915678    -0.05800
Br1460     Br  0.44580879  0.39810547  0.97661919    -0.02700
Br1461     Br  0.52724581  0.30512991  0.86534126     0.00100
Br1462     Br  0.53411007  0.34529252  0.98460051    -0.04300
C1463       C  0.58691145  0.50013780  0.03978957    -0.11700
C1464       C  0.60966556  0.50969347  0.02942810     0.03800
C1465       C  0.63265416  0.49812982  0.03478821    -0.12200
C1466       C  0.63396342  0.47750519  0.05099704     0.18700
C1467       C  0.61184885  0.46978160  0.06351706    -0.09200
C1468       C  0.58869853  0.48072980  0.05760307    -0.02200
H1469       H  0.64963775  0.50504954  0.02584267     0.05200
C1470       C  0.65859496  0.46477010  0.05489025     0.20600
H1471       H  0.57187716  0.47335242  0.06646705     0.10400
C1472       C  0.67909177  0.47846511  0.06515486    -0.15600
C1473       C  0.70237015  0.46707132  0.06953664     0.03400
C1474       C  0.70560778  0.44140845  0.06373280    -0.10900
C1475       C  0.68532691  0.42784328  0.05284919    -0.00900
C1476       C  0.66218968  0.43935004  0.04799772    -0.06100
H1477       H  0.67684068  0.49806337  0.07021515     0.06400
H1478       H  0.68754829  0.40818530  0.04801048     0.09800
Br1479     Br  0.61231146  0.44472819  0.08931285    -0.05800
Br1480     Br  0.61117867  0.53845496  0.00785345    -0.02700
Br1481     Br  0.72875040  0.48701951  0.08483544     0.00100
Br1482     Br  0.63653156  0.41984078  0.03082313    -0.04300
C1483       C  0.70229207  0.54800702  0.93636806    -0.11700
C1484       C  0.68979801  0.54645266  0.95974608     0.03800
C1485       C  0.66745163  0.53243938  0.96161203    -0.12200
C1486       C  0.65682906  0.52021479  0.94035740     0.18700
C1487       C  0.66960735  0.52123913  0.91711689    -0.09200
C1488       C  0.69217420  0.53502431  0.91527183    -0.02200
H1489       H  0.65773183  0.53201690  0.97952459     0.05200
C1490       C  0.63105395  0.50936595  0.94236362     0.20600
H1491       H  0.70162085  0.53603661  0.89718962     0.10400
C1492       C  0.61099834  0.52230742  0.93153727    -0.15600
C1493       C  0.58596916  0.51582891  0.93690807     0.03400
C1494       C  0.58055424  0.49585221  0.95364166    -0.10900
C1495       C  0.60084993  0.48159475  0.96263560    -0.00900
C1496       C  0.62582625  0.48831162  0.95732361    -0.06100
H1497       H  0.61487866  0.53850466  0.91990192     0.06400
H1498       H  0.59745503  0.46605806  0.97526265     0.09800
Br1499     Br  0.65680215  0.50419681  0.88750331    -0.05800
Br1500     Br  0.70091576  0.56523114  0.98899556    -0.02700
Br1501     Br  0.56073469  0.53662199  0.92208875     0.00100
Br1502     Br  0.65225762  0.46894709  0.97187040    -0.04300
C1503       C  0.52963633  0.58575865  0.04912155    -0.11700
C1504       C  0.51185324  0.60195002  0.06016716     0.03800
C1505       C  0.51887161  0.62669878  0.06671180    -0.12200
C1506       C  0.54343705  0.63558842  0.06251353     0.18700
C1507       C  0.56171262  0.61870692  0.05383506    -0.09200
C1508       C  0.55468387  0.59415797  0.04696689    -0.02200
H1509       H  0.50477996  0.63944211  0.07379010     0.05200
C1510       C  0.54943278  0.66274373  0.06557460     0.20600
H1511       H  0.56861582  0.58192483  0.03869458     0.10400
C1512       C  0.55125104  0.67347068  0.08986606    -0.15600
C1513       C  0.55951829  0.69839026  0.09326738     0.03400
C1514       C  0.56638160  0.71294271  0.07212216    -0.10900
C1515       C  0.56269414  0.70273705  0.04775457    -0.00900
C1516       C  0.55414738  0.67791829  0.04436795    -0.06100
H1517       H  0.54691514  0.66221471  0.10625995     0.06400
H1518       H  0.56759677  0.71370027  0.03131484     0.09800
Br1519     Br  0.59630227  0.62868531  0.05007214    -0.05800
Br1520     Br  0.47712916  0.59242066  0.06383143    -0.02700
Br1521     Br  0.56105320  0.71173088  0.12716496     0.00100
Br1522     Br  0.54958727  0.66533821  0.01042345    -0.04300
C1523       C  0.44742086  0.71046966  0.92659313    -0.11700
C1524       C  0.47194279  0.70540220  0.93562019     0.03800
C1525       C  0.47901604  0.68055438  0.94030609    -0.12200
C1526       C  0.46265571  0.66021298  0.93488111     0.18700
C1527       C  0.43868522  0.66521893  0.92477129    -0.09200
C1528       C  0.43110561  0.68993645  0.92152933    -0.02200
H1529       H  0.49742945  0.67711876  0.94828002     0.05200
C1530       C  0.46954690  0.63426967  0.94231758     0.20600
H1531       H  0.41216376  0.69300234  0.91475493     0.10400
C1532       C  0.45315775  0.62122286  0.95828876    -0.15600
C1533       C  0.45842420  0.59710945  0.96643491     0.03400
C1534       C  0.48148513  0.58580734  0.96014625    -0.10900
C1535       C  0.49779509  0.59847718  0.94358709    -0.00900
C1536       C  0.49188531  0.62243905  0.93447335    -0.06100
H1537       H  0.43597660  0.62993336  0.96461307     0.06400
H1538       H  0.51558200  0.59020850  0.93849678     0.09800
Br1539     Br  0.41565469  0.63903974  0.91396023    -0.05800
Br1540     Br  0.49739330  0.73092719  0.94027697    -0.02700
Br1541     Br  0.43275494  0.58061866  0.98577709     0.00100
Br1542     Br  0.51474750  0.63799039  0.91127887    -0.04300
C1543       C  0.30509011  0.55249509  0.07987813    -0.11700
C1544       C  0.32769436  0.56574512  0.08571175     0.03800
C1545       C  0.35090011  0.55418777  0.08244668    -0.12200
C1546       C  0.35290114  0.53071694  0.07027543     0.18700
C1547       C  0.33037957  0.51767118  0.06362453    -0.09200
C1548       C  0.30691632  0.52831913  0.06901180    -0.02200
H1549       H  0.36776040  0.56440402  0.08819936     0.05200
C1550       C  0.37859800  0.52143379  0.06353242     0.20600
H1551       H  0.28999093  0.51772509  0.06424932     0.10400
C1552       C  0.38586699  0.49674500  0.06922548    -0.15600
C1553       C  0.40964775  0.48771433  0.06224008     0.03400
C1554       C  0.42744035  0.50395158  0.05122517    -0.10900
C1555       C  0.42075394  0.52892879  0.04698009    -0.00900
C1556       C  0.39650627  0.53740826  0.05188039    -0.06100
H1557       H  0.37294121  0.48428910  0.07885173     0.06400
H1558       H  0.43407069  0.54170942  0.03831823     0.09800
Br1559     Br  0.33004915  0.48602603  0.04582036    -0.05800
Br1560     Br  0.32893978  0.60089193  0.09459907    -0.02700
Br1561     Br  0.41722847  0.45333553  0.06836641     0.00100
Br1562     Br  0.38868255  0.57028277  0.03966276    -0.04300
C1563       C  0.29944862  0.44965660  0.94486771    -0.11700
C1564       C  0.31681048  0.44028765  0.96247574     0.03800
C1565       C  0.33997874  0.45267913  0.96648833    -0.12200
C1566       C  0.34636109  0.47441446  0.95300998     0.18700
C1567       C  0.32890969  0.48389107  0.93550799    -0.09200
C1568       C  0.30563031  0.47158443  0.93163121    -0.02200
H1569       H  0.35327948  0.44507266  0.97984963     0.05200
C1570       C  0.37189141  0.48585163  0.95648407     0.20600
H1571       H  0.29260266  0.47874404  0.91774774     0.10400
C1572       C  0.39235992  0.47487217  0.94425721    -0.15600
C1573       C  0.41712385  0.48325180  0.94894441     0.03400
C1574       C  0.42200638  0.50292379  0.96681958    -0.10900
C1575       C  0.40108701  0.51478302  0.97787063    -0.00900
C1576       C  0.37635719  0.50650638  0.97279802    -0.06100
H1577       H  0.38906424  0.45920698  0.93133928     0.06400
H1578       H  0.40389000  0.52982440  0.99157367     0.09800
Br1579     Br  0.33666471  0.51284402  0.91567480    -0.05800
Br1580     Br  0.30983017  0.41016183  0.98083290    -0.02700
Br1581     Br  0.44288428  0.46598816  0.93058593     0.00100
Br1582     Br  0.34930700  0.52317273  0.98956616    -0.04300
C1583       C  0.06234115  0.44351491  0.30407704    -0.11700
C1584       C  0.03965502  0.44651368  0.31739607     0.03800
C1585       C  0.03964461  0.45923260  0.34071091    -0.12200
C1586       C  0.06200895  0.46885343  0.35148529     0.18700
C1587       C  0.08464807  0.46623121  0.33811802    -0.09200
C1588       C  0.08467497  0.45373934  0.31457952    -0.02200
H1589       H  0.02226539  0.46076406  0.35094365     0.05200
C1590       C  0.06106162  0.47989914  0.37740200     0.20600
H1591       H  0.10227916  0.45142867  0.30472709     0.10400
C1592       C  0.07077806  0.46646293  0.39783048    -0.15600
C1593       C  0.06531783  0.47332008  0.42293800     0.03400
C1594       C  0.04942141  0.49396585  0.42794785    -0.10900
C1595       C  0.04192172  0.50872421  0.40728014    -0.00900
C1596       C  0.04752293  0.50182777  0.38234227    -0.06100
H1597       H  0.08144937  0.44965727  0.39419074     0.06400
H1598       H  0.03013460  0.52487758  0.41028193     0.09800
Br1599     Br  0.11588482  0.47923533  0.35136826    -0.05800
Br1600     Br  0.00857527  0.43127057  0.30628431    -0.02700
Br1601     Br  0.07878308  0.45222675  0.44877455     0.00100
Br1602     Br  0.03510037  0.52212992  0.35540928    -0.04300
C1603       C  0.96558797  0.48800332  0.42368434    -0.11700
C1604       C  0.97713284  0.47806687  0.40164415     0.03800
C1605       C  0.97343423  0.48948532  0.37809340    -0.12200
C1606       C  0.95815989  0.51059398  0.37570812     0.18700
C1607       C  0.94490004  0.51909364  0.39709411    -0.09200
C1608       C  0.94875261  0.50796861  0.42068731    -0.02200
H1609       H  0.98297364  0.48221305  0.36162996     0.05200
C1610       C  0.95615813  0.52329939  0.35077952     0.20600
H1611       H  0.93922959  0.51576619  0.43695846     0.10400
C1612       C  0.94496453  0.51047019  0.33014274    -0.15600
C1613       C  0.94196318  0.52218650  0.30666590     0.03400
C1614       C  0.95027742  0.54718207  0.30344628    -0.10900
C1615       C  0.96204956  0.55980058  0.32386689    -0.00900
C1616       C  0.96531501  0.54802713  0.34724876    -0.06100
H1617       H  0.93805276  0.49141235  0.33246510     0.06400
H1618       H  0.96869052  0.57896038  0.32160281     0.09800
Br1619     Br  0.92122369  0.54586834  0.39509360    -0.05800
Br1620     Br  0.99836113  0.44918571  0.40199790    -0.02700
Br1621     Br  0.92521218  0.50380379  0.27994116     0.00100
Br1622     Br  0.98299913  0.56631043  0.37352569    -0.04300
C1623       C  0.04614469  0.49277580  0.58779965    -0.11700
C1624       C  0.05925941  0.51572406  0.59303636     0.03800
C1625       C  0.06579163  0.52237340  0.61795909    -0.12200
C1626       C  0.05949284  0.50696387  0.63827897     0.18700
C1627       C  0.04665379  0.48413822  0.63336364    -0.09200
C1628       C  0.04008144  0.47723919  0.60838768    -0.02200
H1629       H  0.07543085  0.54012367  0.62163301     0.05200
C1630       C  0.06608856  0.51573393  0.66435039     0.20600
H1631       H  0.02969501  0.45984968  0.60515441     0.10400
C1632       C  0.04788455  0.52767440  0.67917852    -0.15600
C1633       C  0.05433912  0.53953730  0.70222920     0.03400
C1634       C  0.07953168  0.53966928  0.71084833    -0.10900
C1635       C  0.09754255  0.52688833  0.69635515    -0.00900
C1636       C  0.09102344  0.51508085  0.67332983    -0.06100
H1637       H  0.02882011  0.52891621  0.67216027     0.06400
H1638       H  0.11700272  0.52690752  0.70252774     0.09800
Br1639     Br  0.03773763  0.46196008  0.66026159    -0.05800
Br1640     Br  0.06733036  0.54039683  0.56797306    -0.02700
Br1641     Br  0.02852942  0.55760176  0.71960929     0.00100
Br1642     Br  0.11696524  0.49926891  0.65405963    -0.04300
C1643       C  0.95955522  0.49227067  0.58326079    -0.11700
C1644       C  0.94042272  0.47355716  0.58517373     0.03800
C1645       C  0.93460530  0.46337300  0.60883668    -0.12200
C1646       C  0.94701451  0.47185476  0.63085933     0.18700
C1647       C  0.96407602  0.49209689  0.62936613    -0.09200
C1648       C  0.97024719  0.50207327  0.60584927    -0.02200
H1649       H  0.92094021  0.44815178  0.60995772     0.05200
C1650       C  0.94345459  0.45838990  0.65495542     0.20600
H1651       H  0.98465749  0.51662569  0.60527189     0.10400
C1652       C  0.96300561  0.44348267  0.66407777    -0.15600
C1653       C  0.96067253  0.43076426  0.68698824     0.03400
C1654       C  0.93858103  0.43309471  0.70135696    -0.10900
C1655       C  0.91888887  0.44776124  0.69203014    -0.00900
C1656       C  0.92117427  0.46032767  0.66900141    -0.06100
H1657       H  0.98005122  0.44152533  0.65313171     0.06400
H1658       H  0.90162028  0.44933609  0.70268265     0.09800
Br1659     Br  0.97989704  0.50619632  0.65905619    -0.05800
Br1660     Br  0.92194397  0.46030364  0.55652925    -0.02700
Br1661     Br  0.98734462  0.40904370  0.69687926     0.00100
Br1662     Br  0.89366613  0.48021183  0.65759062    -0.04300
C1663       C  0.08209994  0.28585311  0.55232659    -0.11700
C1664       C  0.07098396  0.28755492  0.52786024     0.03800
C1665       C  0.06556853  0.31118910  0.51761705    -0.12200
C1666       C  0.07325746  0.33360710  0.52985991     0.18700
C1667       C  0.08709639  0.33175700  0.55262840    -0.09200
C1668       C  0.09009457  0.30851369  0.56411841    -0.02200
H1669       H  0.05514608  0.31195825  0.49999273     0.05200
C1670       C  0.06414791  0.35857927  0.52099541     0.20600
H1671       H  0.09873326  0.30856147  0.58268299     0.10400
C1672       C  0.05303792  0.37432994  0.53896269    -0.15600
C1673       C  0.04509729  0.39835964  0.53306541     0.03400
C1674       C  0.04550327  0.40675889  0.50766923    -0.10900
C1675       C  0.05583822  0.39064041  0.48922313    -0.00900
C1676       C  0.06574290  0.36709993  0.49576567    -0.06100
H1677       H  0.05082262  0.36796619  0.55823172     0.06400
H1678       H  0.05662643  0.39652340  0.46969480     0.09800
Br1679     Br  0.10324321  0.36030074  0.56879881    -0.05800
Br1680     Br  0.06477372  0.25903111  0.50601647    -0.02700
Br1681     Br  0.03397588  0.41757952  0.56167470     0.00100
Br1682     Br  0.08231155  0.34819323  0.46981821    -0.04300
C1683       C  0.94159146  0.28444868  0.45177783    -0.11700
C1684       C  0.95572755  0.30375437  0.44032054     0.03800
C1685       C  0.95958870  0.32683207  0.45293780    -0.12200
C1686       C  0.94945895  0.33126316  0.47704518     0.18700
C1687       C  0.93531569  0.31195992  0.48855175    -0.09200
C1688       C  0.93161275  0.28875400  0.47598941    -0.02200
H1689       H  0.97047973  0.34146344  0.44384023     0.05200
C1690       C  0.95373510  0.35625169  0.48951990     0.20600
H1691       H  0.92028303  0.27428814  0.48481772     0.10400
C1692       C  0.94122027  0.37733772  0.48029932    -0.15600
C1693       C  0.94682050  0.40157750  0.48970773     0.03400
C1694       C  0.96523457  0.40514434  0.50886139    -0.10900
C1695       C  0.97668728  0.38382296  0.51900928    -0.00900
C1696       C  0.97140391  0.35966518  0.50928490    -0.06100
H1697       H  0.92746735  0.37499001  0.46521417     0.06400
H1698       H  0.99117131  0.38606182  0.53337648     0.09800
Br1699     Br  0.91965855  0.31698818  0.52077888    -0.05800
Br1700     Br  0.97005792  0.29937062  0.40735646    -0.02700
Br1701     Br  0.92875526  0.42912181  0.47566907     0.00100
Br1702     Br  0.99060423  0.33222325  0.52187045    -0.04300
C1703       C  0.93581793  0.70214270  0.56273313    -0.11700
C1704       C  0.95831345  0.68949874  0.56806945     0.03800
C1705       C  0.96200311  0.66519077  0.55841748    -0.12200
C1706       C  0.94349938  0.65300886  0.54347483     0.18700
C1707       C  0.92106556  0.66566655  0.53806547    -0.09200
C1708       C  0.91740694  0.69001622  0.54762412    -0.02200
H1709       H  0.97913624  0.65547047  0.56312065     0.05200
C1710       C  0.94718318  0.62644181  0.53555554     0.20600
H1711       H  0.89983158  0.69931590  0.54377791     0.10400
C1712       C  0.94635630  0.60778880  0.55401924    -0.15600
C1713       C  0.95198956  0.58284547  0.54798400     0.03400
C1714       C  0.95804025  0.57588782  0.52292655    -0.10900
C1715       C  0.95783256  0.59440585  0.50420548    -0.00900
C1716       C  0.95279571  0.61955797  0.51038532    -0.06100
H1717       H  0.94221252  0.61285332  0.57346381     0.06400
H1718       H  0.96370860  0.58971573  0.48514042     0.09800
Br1719     Br  0.89425853  0.64975031  0.51918235    -0.05800
Br1720     Br  0.98355760  0.70377868  0.59020440    -0.02700
Br1721     Br  0.95271714  0.55933459  0.57506575     0.00100
Br1722     Br  0.95653992  0.64424152  0.48451009    -0.04300
C1723       C  0.06839968  0.70404152  0.44878357    -0.11700
C1724       C  0.04642764  0.69032993  0.44208616     0.03800
C1725       C  0.04231525  0.66627498  0.45182406    -0.12200
C1726       C  0.05990108  0.65550278  0.46816314     0.18700
C1727       C  0.08169336  0.66923914  0.47506998    -0.09200
C1728       C  0.08584804  0.69328441  0.46534139    -0.02200
H1729       H  0.02563286  0.65569422  0.44619256     0.05200
C1730       C  0.05590382  0.62936860  0.47659450     0.20600
H1731       H  0.10287451  0.70353591  0.47049723     0.10400
C1732       C  0.06428655  0.60954815  0.46123896    -0.15600
C1733       C  0.05918393  0.58454198  0.46761028     0.03400
C1734       C  0.04604794  0.57905303  0.48994889    -0.10900
C1735       C  0.03841830  0.59891920  0.50572324    -0.00900
C1736       C  0.04303009  0.62392820  0.49910637    -0.06100
H1737       H  0.07405579  0.61358930  0.44378276     0.06400
H1738       H  0.02730349  0.59500728  0.52238859     0.09800
Br1739     Br  0.10644255  0.65550954  0.49727248    -0.05800
Br1740     Br  0.02248260  0.70276998  0.41823362    -0.02700
Br1741     Br  0.06909228  0.55859656  0.44454273     0.00100
Br1742     Br  0.02974708  0.65000130  0.52028236    -0.04300
C1743       C  0.49361151  0.04486911  0.57713903    -0.11700
C1744       C  0.50909810  0.05943179  0.59343315     0.03800
C1745       C  0.50025950  0.06659041  0.61750343    -0.12200
C1746       C  0.47685980  0.05771242  0.62644354     0.18700
C1747       C  0.46183651  0.04248270  0.61010065    -0.09200
C1748       C  0.46981471  0.03722212  0.58558108    -0.02200
H1749       H  0.51191266  0.07873167  0.62940728     0.05200
C1750       C  0.46775623  0.06441855  0.65235366     0.20600
H1751       H  0.45792613  0.02537522  0.57357333     0.10400
C1752       C  0.44323484  0.07347779  0.65482315    -0.15600
C1753       C  0.43154447  0.07515690  0.67836142     0.03400
C1754       C  0.44528307  0.07022963  0.70076640    -0.10900
C1755       C  0.47053667  0.06302560  0.69845955    -0.00900
C1756       C  0.48171058  0.05976289  0.67462956    -0.06100
H1757       H  0.43237576  0.07761233  0.63801667     0.06400
H1758       H  0.48158771  0.05951637  0.71528415     0.09800
Br1759     Br  0.43141932  0.02573975  0.62066015    -0.05800
Br1760     Br  0.54213598  0.06993158  0.58357202    -0.02700
Br1761     Br  0.39589259  0.08086718  0.67767030     0.00100
Br1762     Br  0.51553203  0.04767194  0.67401900    -0.04300
C1763       C  0.55361591  0.93545744  0.70805294    -0.11700
C1764       C  0.55680318  0.95781095  0.69434074     0.03800
C1765       C  0.54325208  0.96135570  0.67184046    -0.12200
C1766       C  0.52648793  0.94284193  0.66238113     0.18700
C1767       C  0.52314941  0.92056017  0.67619142    -0.09200
C1768       C  0.53663174  0.91704833  0.69877537    -0.02200
H1769       H  0.54644938  0.97834702  0.66117991     0.05200
C1770       C  0.51463100  0.94645784  0.63705151     0.20600
H1771       H  0.53402138  0.89973848  0.70905837     0.10400
C1772       C  0.52192071  0.93122281  0.61661959    -0.15600
C1773       C  0.51460029  0.93666282  0.59175604     0.03400
C1774       C  0.50028797  0.95826849  0.58671096    -0.10900
C1775       C  0.49115608  0.97212944  0.60749071    -0.00900
C1776       C  0.49810040  0.96633577  0.63240013    -0.06100
H1777       H  0.53410215  0.91545075  0.61992700     0.06400
H1778       H  0.47958204  0.98834423  0.60438770     0.09800
Br1779     Br  0.50025016  0.89452283  0.66508098    -0.05800
Br1780     Br  0.58101009  0.98310823  0.70435195    -0.02700
Br1781     Br  0.52453101  0.91355652  0.56573462     0.00100
Br1782     Br  0.48472337  0.98617136  0.65951743    -0.04300
C1783       C  0.29745355  0.04106490  0.41570983    -0.11700
C1784       C  0.30718573  0.05713174  0.43487736     0.03800
C1785       C  0.33061554  0.05228684  0.44598137    -0.12200
C1786       C  0.34461622  0.03143941  0.43829206     0.18700
C1787       C  0.33436704  0.01479126  0.41988312    -0.09200
C1788       C  0.31101239  0.01973459  0.40865930    -0.02200
H1789       H  0.33808530  0.06498639  0.46037811     0.05200
C1790       C  0.37003668  0.02749006  0.44923896     0.20600
H1791       H  0.30355827  0.00708466  0.39421039     0.10400
C1792       C  0.37243843  0.01772571  0.47366954    -0.15600
C1793       C  0.39618599  0.01222501  0.48371298     0.03400
C1794       C  0.41800611  0.01640381  0.46922229    -0.10900
C1795       C  0.41565501  0.02678967  0.44508436    -0.00900
C1796       C  0.39194759  0.03262692  0.43519146    -0.06100
H1797       H  0.35575431  0.01381855  0.48471358     0.06400
H1798       H  0.43229595  0.03016707  0.43380956     0.09800
Br1799     Br  0.35161879  0.98499693  0.40968795    -0.05800
Br1800     Br  0.28893058  0.08578613  0.44654247    -0.02700
Br1801     Br  0.39785281  0.99791643  0.51680413     0.00100
Br1802     Br  0.39028290  0.04766897  0.40243920    -0.04300
C1803       C  0.30831330  0.91291852  0.52381747    -0.11700
C1804       C  0.32190001  0.93536652  0.52879682     0.03800
C1805       C  0.34709211  0.93765311  0.52122939    -0.12200
C1806       C  0.35921261  0.91786777  0.50862048     0.18700
C1807       C  0.34518679  0.89609870  0.50218654    -0.09200
C1808       C  0.32001342  0.89377818  0.50976460    -0.02200
H1809       H  0.35766720  0.95447699  0.52634795     0.05200
C1810       C  0.38698721  0.91938749  0.50520804     0.20600
H1811       H  0.30997214  0.87628630  0.50605005     0.10400
C1812       C  0.40252651  0.91713134  0.52658634    -0.15600
C1813       C  0.42825355  0.92308257  0.52548935     0.03400
C1814       C  0.43907082  0.93135418  0.50271682    -0.10900
C1815       C  0.42400217  0.93098307  0.48070585    -0.00900
C1816       C  0.39809751  0.92541599  0.48186740    -0.06100
H1817       H  0.39430136  0.91224647  0.54460879     0.06400
H1818       H  0.43166078  0.93802305  0.46316717     0.09800
Br1819     Br  0.36026992  0.86817542  0.48517543    -0.05800
Br1820     Br  0.30793234  0.96223760  0.54841810    -0.02700
Br1821     Br  0.44738059  0.92269139  0.55630871     0.00100
Br1822     Br  0.37814094  0.92943768  0.45190341    -0.04300
C1823       C  0.54803530  0.06881197  0.29698192    -0.11700
C1824       C  0.54609117  0.04452212  0.30731614     0.03800
C1825       C  0.53419895  0.04099551  0.33068274    -0.12200
C1826       C  0.52470670  0.06131977  0.34466891     0.18700
C1827       C  0.52608400  0.08543299  0.33415505    -0.09200
C1828       C  0.53742865  0.08897179  0.31051666    -0.02200
H1829       H  0.53333535  0.02235399  0.33845690     0.05200
C1830       C  0.51598438  0.05724961  0.37112533     0.20600
H1831       H  0.53852809  0.10775486  0.30292960     0.10400
C1832       C  0.53150076  0.06515278  0.39133103    -0.15600
C1833       C  0.52631145  0.05815745  0.41632852     0.03400
C1834       C  0.50499095  0.04281915  0.42165982    -0.10900
C1835       C  0.48832772  0.03686542  0.40150698    -0.00900
C1836       C  0.49378398  0.04371011  0.37650924    -0.06100
H1837       H  0.54855592  0.07574681  0.38745341     0.06400
H1838       H  0.47192213  0.02510661  0.40478628     0.09800
Br1839     Br  0.51289259  0.11408719  0.35157742    -0.05800
Br1840     Br  0.56171377  0.01587493  0.29203531    -0.02700
Br1841     Br  0.55049839  0.06865723  0.44161062     0.00100
Br1842     Br  0.47109681  0.03300967  0.35007923    -0.04300
C1843       C  0.44729280  0.94037010  0.27640249    -0.11700
C1844       C  0.47308000  0.93471325  0.27812546     0.03800
C1845       C  0.48604970  0.93842772  0.30112242    -0.12200
C1846       C  0.47366812  0.94790417  0.32251158     0.18700
C1847       C  0.44827719  0.95498847  0.32024655    -0.09200
C1848       C  0.43527351  0.95086693  0.29747009    -0.02200
H1849       H  0.50558496  0.93308149  0.30256499     0.05200
C1850       C  0.48658542  0.94876241  0.34750920     0.20600
H1851       H  0.41555548  0.95562321  0.29625497     0.10400
C1852       C  0.50637685  0.96597189  0.35234899    -0.15600
C1853       C  0.51561763  0.96990924  0.37713479     0.03400
C1854       C  0.50423101  0.95717544  0.39749363    -0.10900
C1855       C  0.48665434  0.93786773  0.39191587    -0.00900
C1856       C  0.47810869  0.93338793  0.36725525    -0.06100
H1857       H  0.51391701  0.97705990  0.33704406     0.06400
H1858       H  0.47845725  0.92695528  0.40702530     0.09800
Br1859     Br  0.43044212  0.97024849  0.34781416    -0.05800
Br1860     Br  0.49085566  0.92033397  0.25012734    -0.02700
Br1861     Br  0.54303783  0.99324204  0.38208458     0.00100
Br1862     Br  0.45396490  0.90669246  0.36167191    -0.04300
C1863       C  0.71473361  0.05406093  0.54200285    -0.11700
C1864       C  0.70335021  0.02998509  0.54297680     0.03800
C1865       C  0.68059219  0.02516206  0.53019040    -0.12200
C1866       C  0.66880083  0.04383270  0.51598931     0.18700
C1867       C  0.68072099  0.06758612  0.51419778    -0.09200
C1868       C  0.70333952  0.07252046  0.52721117    -0.02200
H1869       H  0.67150183  0.00698878  0.53222216     0.05200
C1870       C  0.64291785  0.03890783  0.50584376     0.20600
H1871       H  0.71190478  0.09103089  0.52609472     0.10400
C1872       C  0.62317364  0.05397782  0.51435520    -0.15600
C1873       C  0.59812601  0.04807542  0.50825644     0.03400
C1874       C  0.59212939  0.02601190  0.49422865    -0.10900
C1875       C  0.61194745  0.01183640  0.48428399    -0.00900
C1876       C  0.63713804  0.01821770  0.48979417    -0.06100
H1877       H  0.62717150  0.07005733  0.52649796     0.06400
H1878       H  0.60787605  0.99504417  0.47335274     0.09800
Br1879     Br  0.66700045  0.09394336  0.49415321    -0.05800
Br1880     Br  0.71663307  0.00360219  0.56332477    -0.02700
Br1881     Br  0.57298324  0.07110125  0.51954722     0.00100
Br1882     Br  0.66295883  0.99803649  0.47508329    -0.04300
C1883       C  0.69649831  0.92163594  0.43535240    -0.11700
C1884       C  0.67616084  0.92147480  0.41791372     0.03800
C1885       C  0.65138287  0.92203429  0.42658070    -0.12200
C1886       C  0.64584616  0.92566580  0.45230208     0.18700
C1887       C  0.66617992  0.92672676  0.46977075    -0.09200
C1888       C  0.69103075  0.92416682  0.46126145    -0.02200
H1889       H  0.63624221  0.92075335  0.41282914     0.05200
C1890       C  0.61902423  0.92969014  0.45995433     0.20600
H1891       H  0.70617294  0.92436826  0.47504239     0.10400
C1892       C  0.60850699  0.91638927  0.48031516    -0.15600
C1893       C  0.58447617  0.92206821  0.48960850     0.03400
C1894       C  0.56944623  0.93974050  0.47723761    -0.10900
C1895       C  0.57892970  0.95094071  0.45527939    -0.00900
C1896       C  0.60360154  0.94700511  0.44723861    -0.06100
H1897       H  0.61941729  0.90225735  0.48976093     0.06400
H1898       H  0.56808677  0.96494783  0.44569295     0.09800
Br1899     Br  0.66173880  0.93315257  0.50529795    -0.05800
Br1900     Br  0.68055438  0.92359599  0.38186124    -0.02700
Br1901     Br  0.57333152  0.90575558  0.51960673     0.00100
Br1902     Br  0.61580512  0.96889323  0.42116011    -0.04300
loop_ 
_geom_bond_atom_site_label_1 
_geom_bond_atom_site_label_2 
_geom_bond_distance 
_geom_bond_site_symmetry_2 
_ccdc_geom_bond_type 
O1            C9   1.260       .  A
O1          Co21   1.975       .  S
O2           C10   1.270       .  A
O2          Co22   1.990   1_565  S
O3           C11   1.258       .  A
O3          Co23   1.966       .  S
O4           C12   1.289       .  A
O4          Co24   1.948       .  S
O5           C11   1.273       .  A
O5          Co22   2.040   1_565  S
O6           C12   1.302       .  A
O6          Co21   2.029       .  S
O7           C10   1.277       .  A
O7          Co24   1.997       .  S
O8            C9   1.265       .  A
O8          Co23   2.018       .  S
C9         C1894   1.489       .  S
C10        C1814   1.479       .  S
C11        C1774   1.497       .  S
C12        C1854   1.489       .  S
O13          C26   1.231       .  A
O13         Co21   1.961   1_545  S
O14          C27   1.263       .  A
O14         Co22   1.960       .  S
O15          C28   1.266       .  A
O15         Co23   1.974   1_545  S
O16          C29   1.266   1_565  A
O16         Co24   2.003       .  S
O17          C29   1.268       .  A
O17         Co22   1.996       .  S
O18          C28   1.278       .  A
O18         Co21   2.035   1_545  S
O19          C26   1.255       .  A
O19         Co24   2.061   1_545  S
O20          C27   1.277       .  A
O20         Co23   2.039   1_545  S
Co21         O25   2.024       .  S
Co22         O25   2.049   1_545  S
Co23         O25   2.060       .  S
Co24         O25   2.071       .  S
C26        C1834   1.498       .  S
C27        C1743   1.479       .  S
C28        C1874   1.489       .  S
C29        C1794   1.478       .  S
O30          C38   1.266       .  A
O30         Co50   1.992   1_455  S
O31          C39   1.290       .  A
O31         Co51   2.084   1_455  S
O32          C40   1.257       .  A
O32         Co52   1.966       .  S
O33          C41   1.272       .  A
O33         Co53   1.975       .  S
O34          C40   1.268       .  A
O34         Co51   2.033   1_455  S
O35          C41   1.282       .  A
O35         Co50   2.032   1_455  S
O36          C39   1.272       .  A
O36         Co53   1.932       .  S
O37          C38   1.270       .  A
O37         Co52   1.990       .  S
C38        C1734   1.471       .  S
C39        C1674   1.500       .  S
C40        C1623   1.498       .  S
C41        C1594   1.498       .  S
O42          C55   1.262       .  A
O42         Co50   1.969       .  S
O43          C56   1.265       .  A
O43         Co51   1.960       .  S
O44          C57   1.266       .  A
O44         Co52   1.990   1_655  S
O45          C58   1.291       .  A
O45         Co53   2.089   1_655  S
O46          C58   1.269       .  A
O46         Co51   1.922       .  S
O47          C57   1.274       .  A
O47         Co50   1.998       .  S
O48          C55   1.266       .  A
O48         Co53   2.017   1_655  S
O49          C56   1.282       .  A
O49         Co52   2.037   1_655  S
Co50         O54   2.039   1_655  S
Co51         O54   2.034   1_655  S
Co52         O54   2.038       .  S
Co53         O54   2.043       .  S
C55        C1603   1.499       .  S
C56        C1643   1.493       .  S
C57        C1714   1.479       .  S
C58        C1694   1.491       .  S
O59          C67   1.265       .  A
O59         Co79   1.966       .  S
O60          C68   1.260       .  A
O60         Co80   1.975       .  S
O61          C69   1.266       .  A
O61         Co81   1.988   1_556  S
O62          C70   1.291       .  A
O62         Co82   2.081   1_556  S
O63          C69   1.271       .  A
O63         Co80   1.998       .  S
O64          C70   1.268       .  A
O64         Co79   1.915       .  S
O65          C68   1.264       .  A
O65         Co82   2.009   1_556  S
O66          C67   1.282       .  A
O66         Co81   2.054   1_556  S
C67        C1574   1.505       .  S
C68        C1494   1.496       .  S
C69        C1534   1.486       .  S
C70        C1443   1.491       .  S
O71          C84   1.292       .  A
O71         Co79   2.079   1_554  S
O72          C85   1.270       .  A
O72         Co80   1.998   1_554  S
O73          C86   1.257       .  A
O73         Co81   1.965       .  S
O74          C87   1.271       .  A
O74         Co82   1.973       .  S
O75          C87   1.280       .  A
O75         Co80   2.042   1_554  S
O76          C86   1.265       .  A
O76         Co79   2.028   1_554  S
O77          C84   1.266       .  A
O77         Co82   1.910       .  S
O78          C85   1.269       .  A
O78         Co81   1.985       .  S
Co79         O83   2.039   1_556  S
Co80         O83   2.046   1_556  S
Co81         O83   2.035       .  S
Co82         O83   2.022       .  S
C84        C1434   1.490       .  S
C85        C1503   1.480       .  S
C86        C1554   1.486       .  S
C87        C1463   1.504       .  S
C88        C1763   1.489       .  S
C88          C89   1.406       .  A
C88          C93   1.410       .  A
C89          C90   1.406       .  A
C89          H94   1.084       .  S
C90        C1403   1.485       .  S
C90          C91   1.404       .  A
C91          C92   1.404       .  A
C91          H95   1.084       .  S
C92        C1383   1.483       .  S
C92          C93   1.408       .  A
C93          H96   1.084       .  S
C97        C1343   1.499       .  S
C97          C98   1.411       .  A
C97         C102   1.408       .  A
C98          C99   1.407       .  A
C98         H103   1.084       .  S
C99        C1363   1.490       .  S
C99         C100   1.406       .  A
C100        C101   1.404       .  A
C100        H104   1.084       .  S
C101       C1414   1.483       .  S
C101        C102   1.404       .  A
C102        H105   1.082       .  S
C106       C1703   1.486       .  S
C106        C107   1.409       .  A
C106        C111   1.405       .  A
C107        C108   1.409       .  A
C107        H112   1.083       .  S
C108       C1323   1.487       .  S
C108        C109   1.406       .  A
C109        C110   1.406       .  A
C109        H113   1.084       .  S
C110       C1374   1.488       .  S
C110        C111   1.405       .  A
C111        H114   1.084       .  S
C115       C1303   1.506       .  S
C115        C116   1.414       .  A
C115        C120   1.410       .  A
C116        C117   1.408       .  A
C116        H121   1.081       .  S
C117       C1354   1.501       .  S
C117        C118   1.404       .  A
C118        C119   1.403       .  A
C118        H122   1.083       .  S
C119       C1483   1.483       .  S
C119        C120   1.405       .  A
C120        H123   1.081       .  S
C124       C1263   1.480       .  S
C124        C125   1.404       .  A
C124        C129   1.400       .  A
C125        C126   1.404       .  A
C125        H130   1.084       .  S
C126       C1243   1.485       .  S
C126        C127   1.407       .  A
C127        C128   1.410       .  A
C127        H131   1.084       .  S
C128       C1283   1.492       .  S
C128        C129   1.404       .  A
C129        H132   1.083       .  S
C133       C1563   1.485       .  S
C133        C134   1.406       .  A
C133        C138   1.408       .  A
C134        C135   1.407       .  A
C134        H139   1.083       .  S
C135       C1294   1.490       .  S
C135        C136   1.402       .  A
C136        C137   1.400       .  A
C136        H140   1.084       .  S
C137       C1223   1.479       .  S
C137        C138   1.407       .  A
C138        H141   1.084       .  S
C142       C1214   1.489       .  S
C142        C143   1.412       .  A
C142        C147   1.407       .  A
C143        C144   1.413       .  A
C143        H148   1.083       .  S
C144       C1754   1.496       .  S
C144        C145   1.402       .  A
C145        C146   1.398       .  A
C145        H149   1.083       .  S
C146       C1274   1.479       .  S
C146        C147   1.402       .  A
C147        H150   1.084       .  S
C151       C1183   1.484       .  S
C151        C152   1.401       .  A
C151        C156   1.409       .  A
C152        C153   1.399       .  A
C152        H157   1.084       .  S
C153       C1254   1.486       .  S
C153        C154   1.403       .  A
C154        C155   1.416       .  A
C154        H158   1.081       .  S
C155       C1663   1.514       .  S
C155        C156   1.417       .  A
C156        H159   1.080       .  S
O160        C168   1.262   1_545  A
O160       Co180   1.976       .  S
O161        C169   1.270       .  A
O161       Co181   1.967   1_545  S
O162        C170   1.293   1_556  A
O162       Co182   2.100       .  S
O163        C171   1.268       .  A
O163       Co183   1.993       .  S
O164        C170   1.266       .  A
O164       Co181   1.900       .  S
O165        C171   1.269   1_556  A
O165       Co180   1.993       .  S
O166        C169   1.279       .  A
O166       Co183   2.035       .  S
O167        C168   1.269       .  A
O167       Co182   2.020       .  S
C168       C1203   1.499       .  S
C169       C1134   1.494       .  S
C170       C1083   1.481       .  S
C171       C1154   1.472       .  S
O172        C185   1.271       .  A
O172       Co180   1.993       .  S
O173        C186   1.293   1_554  A
O173       Co181   2.086       .  S
O174        C187   1.271   1_565  A
O174       Co182   1.976       .  S
O175        C188   1.263       .  A
O175       Co183   1.982       .  S
O176        C188   1.266   1_565  A
O176       Co181   2.015       .  S
O177        C187   1.280       .  A
O177       Co180   2.027       .  S
O178        C185   1.270       .  A
O178       Co183   1.982   1_556  S
O179        C186   1.272       .  A
O179       Co182   1.918       .  S
Co180       O184   2.027       .  S
Co181       O184   2.001   1_564  S
Co182       O184   2.022   1_565  S
Co183       O184   2.041   1_554  S
C185       C1163   1.469       .  S
C186       C1063   1.488       .  S
C187       C1394   1.497       .  S
C188       C1103   1.500       .  S
C189       C1054   1.477       .  S
C189        C190   1.404       .  A
C189        C194   1.400       .  A
C190        C191   1.405       .  A
C190        H195   1.084       .  S
C191       C1003   1.481       .  S
C191        C192   1.403       .  A
C192        C193   1.403       .  A
C192        H196   1.084       .  S
C193       C1023   1.477       .  S
C193        C194   1.400       .  A
C194        H197   1.084       .  S
C198       C1523   1.500       .  S
C198        C199   1.407       .  A
C198        C203   1.413       .  A
C199        C200   1.398       .  A
C199        H204   1.084       .  S
C200       C1043   1.472       .  S
C200        C201   1.395       .  A
C201        C202   1.402       .  A
C201        H205   1.085       .  S
C202       C1094   1.481       .  S
C202        C203   1.411       .  A
C203        H206   1.081       .  S
C207        C994   1.490       .  S
C207        C208   1.417       .  A
C207        C212   1.402       .  A
C208        C209   1.417       .  A
C208        H213   1.083       .  S
C209       C1803   1.490       .  S
C209        C210   1.403       .  A
C210        C211   1.396       .  A
C210        H214   1.085       .  S
C211       C1034   1.471       .  S
C211        C212   1.395       .  A
C212        H215   1.084       .  S
C216        C963   1.504       .  S
C216        C217   1.418       .  A
C216        C221   1.406       .  A
C217        C218   1.414       .  A
C217        H222   1.083       .  S
C218       C1634   1.492       .  S
C218        C219   1.404       .  A
C219        C220   1.398       .  A
C219        H223   1.084       .  S
C220       C1014   1.478       .  S
C220        C221   1.400       .  A
C221        H224   1.083       .  S
C225        C923   1.499       .  S
C225        C226   1.411       .  A
C225        C230   1.410       .  A
C226        C227   1.403       .  A
C226        H231   1.084       .  S
C227        C914   1.481       .  S
C227        C228   1.402       .  A
C228        C229   1.403       .  A
C228        H232   1.084       .  S
C229        C954   1.482       .  S
C229        C230   1.406       .  A
C230        H233   1.082       .  S
C234       C1683   1.489       .  S
C234        C235   1.411       .  A
C234        C239   1.405       .  A
C235        C236   1.413       .  A
C235        H240   1.083       .  S
C236        C883   1.491       .  S
C236        C237   1.404       .  A
C237        C238   1.403       .  A
C237        H241   1.084       .  S
C238        C943   1.485       .  S
C238        C239   1.404       .  A
C239        H242   1.084       .  S
C243        C874   1.492       .  S
C243        C244   1.405       .  A
C243        C248   1.412       .  A
C244        C245   1.406       .  A
C244        H249   1.084       .  S
C245        C934   1.493       .  S
C245        C246   1.407       .  A
C246        C247   1.407       .  A
C246        H250   1.084       .  S
C247       C1474   1.494       .  S
C247        C248   1.414       .  A
C248        H251   1.084       .  S
C252       C1823   1.497       .  S
C252        C253   1.407       .  A
C252        C257   1.412       .  A
C253        C254   1.405       .  A
C253        H258   1.084       .  S
C254        C903   1.492       .  S
C254        C255   1.407       .  A
C255        C256   1.405       .  A
C255        H259   1.084       .  S
C256       C1114   1.492       .  S
C256        C257   1.412       .  A
C257        H260   1.083       .  S
O261        C269   1.258   1_556  A
O261       Co281   1.966       .  S
O262        C270   1.292   1_554  A
O262       Co282   2.041       .  S
O263        C271   1.266   1_655  A
O263       Co283   2.016       .  S
O264        C272   1.260       .  A
O264       Co284   1.976       .  S
O265        C271   1.244       .  A
O265       Co282   1.959       .  S
O266        C272   1.265   1_655  A
O266       Co281   2.014       .  S
O267        C270   1.281       .  A
O267       Co284   1.930       .  S
O268        C269   1.273       .  A
O268       Co283   2.026       .  S
C269       C1314   1.474   1_554  S
C270        C843   1.489   1_556  S
C271        C814   1.495       .  S
C272        C974   1.492       .  S
O273        C286   1.270   1_655  A
O273       Co281   1.978       .  S
O274        C287   1.292   1_455  A
O274       Co282   2.050       .  S
O275        C288   1.271       .  A
O275       Co283   1.980       .  S
O276        C289   1.265   1_556  A
O276       Co284   2.007       .  S
O277        C289   1.247       .  A
O277       Co282   1.953       .  S
O278        C288   1.276   1_556  A
O278       Co281   2.032       .  S
O279        C286   1.284       .  A
O279       Co284   2.046       .  S
O280        C287   1.280       .  A
O280       Co283   1.924       .  S
Co281       O285   2.012       .  S
Co282       O285   2.082   1_454  S
Co283       O285   1.992   1_554  S
Co284       O285   1.967   1_455  S
C286        C794   1.485       .  S
C287        C834   1.483   1_655  S
C288        C863   1.504       .  S
C289       C1234   1.490   1_554  S
C290        C754   1.481       .  S
C290        C291   1.400       .  A
C290        C295   1.406       .  A
C291        C292   1.404       .  A
C291        H296   1.084       .  S
C292        C763   1.493       .  S
C292        C293   1.408       .  A
C293        C294   1.407       .  A
C293        H297   1.082       .  S
C294       C1783   1.482       .  S
C294        C295   1.405       .  A
C295        H298   1.084       .  S
C299        C774   1.488       .  S
C299        C300   1.406       .  A
C299        C304   1.405       .  A
C300        C301   1.405       .  A
C300        H305   1.083       .  S
C301        C734   1.486       .  S
C301        C302   1.407       .  A
C302        C303   1.403       .  A
C302        H306   1.084       .  S
C303        C714   1.477       .  S
C303        C304   1.401       .  A
C304        H307   1.083       .  S
C308       C1583   1.487       .  S
C308        C309   1.401       .  A
C308        C313   1.412       .  A
C309        C310   1.396       .  A
C309        H314   1.084       .  S
C310        C723   1.477       .  S
C310        C311   1.398       .  A
C311        C312   1.413       .  A
C311        H315   1.083       .  S
C312        C823   1.509       .  S
C312        C313   1.417       .  A
C313        H316   1.080       .  S
C317       C1423   1.487       .  S
C317        C318   1.408       .  A
C317        C322   1.405       .  A
C318        C319   1.406       .  A
C318        H323   1.083       .  S
C319        C703   1.487       .  S
C319        C320   1.405       .  A
C320        C321   1.401       .  A
C320        H324   1.084       .  S
C321       C1143   1.482       .  S
C321        C322   1.404       .  A
C322        H325   1.085       .  S
C326        C694   1.469       .  S
C326        C327   1.400       .  A
C326        C331   1.400       .  A
C327        C328   1.403       .  A
C327        H332   1.084       .  S
C328        C663   1.476       .  S
C328        C329   1.404       .  A
C329        C330   1.402       .  A
C329        H333   1.084       .  S
C330        C643   1.471       .  S
C330        C331   1.400       .  A
C331        H334   1.085       .  S
C335       C1654   1.482       .  S
C335        C336   1.398       .  A
C335        C340   1.408       .  A
C336        C337   1.400       .  A
C336        H341   1.085       .  S
C337        C683   1.482       .  S
C337        C338   1.404       .  A
C338        C339   1.409       .  A
C338        H342   1.083       .  S
C339        C783   1.495       .  S
C339        C340   1.412       .  A
C340        H343   1.083       .  S
C344       C1174   1.479       .  S
C344        C345   1.398       .  A
C344        C349   1.406       .  A
C345        C346   1.397       .  A
C345        H350   1.085       .  S
C346        C674   1.474       .  S
C346        C347   1.400       .  A
C347        C348   1.407       .  A
C347        H351   1.084       .  S
C348       C1454   1.487       .  S
C348        C349   1.411       .  A
C349        H352   1.083       .  S
C353       C1863   1.489       .  S
C353        C354   1.406       .  A
C353        C358   1.407       .  A
C354        C355   1.406       .  A
C354        H359   1.084       .  S
C355        C654   1.489       .  S
C355        C356   1.403       .  A
C356        C357   1.402       .  A
C356        H360   1.084       .  S
C357        C623   1.481       .  S
C357        C358   1.406       .  A
C358        H361   1.083       .  S
C362        C603   1.489       .  S
C362        C363   1.403       .  A
C362        C367   1.405       .  A
C363        C364   1.402       .  A
C363        H368   1.083       .  S
C364        C583   1.480       .  S
C364        C365   1.406       .  A
C365        C366   1.406       .  A
C365        H369   1.083       .  S
C366        C574   1.484       .  S
C366        C367   1.404       .  A
C367        H370   1.084       .  S
C371       C1883   1.499       .  S
C371        C372   1.404       .  A
C371        C376   1.415       .  A
C372        C373   1.400       .  A
C372        H377   1.082       .  S
C373        C614   1.493       .  S
C373        C374   1.400       .  A
C374        C375   1.412       .  A
C374        H378   1.081       .  S
C375        C543   1.505       .  S
C375        C376   1.415       .  A
C376        H379   1.081       .  S
C380        C803   1.489       .  S
C380        C381   1.411       .  A
C380        C385   1.401       .  A
C381        C382   1.413       .  A
C381        H386   1.083       .  S
C382       C1614   1.488       .  S
C382        C383   1.407       .  A
C383        C384   1.404       .  A
C383        H387   1.083       .  S
C384        C594   1.482       .  S
C384        C385   1.398       .  A
C385        H388   1.085       .  S
C389       C1074   1.505       .  S
C389        C390   1.418       .  A
C389        C394   1.411       .  A
C390        C391   1.412       .  A
C390        H395   1.083       .  S
C391       C1514   1.487       .  S
C391        C392   1.401       .  A
C392        C393   1.394       .  A
C392        H396   1.085       .  S
C393        C563   1.476       .  S
C393        C394   1.400       .  A
C394        H397   1.081       .  S
C398        C514   1.479       .  S
C398        C399   1.402       .  A
C398        C403   1.402       .  A
C399        C400   1.406       .  A
C399        H404   1.084       .  S
C400        C523   1.486       .  S
C400        C401   1.406       .  A
C401        C402   1.408       .  A
C401        H405   1.084       .  S
C402        C483   1.486       .  S
C402        C403   1.404       .  A
C403        H406   1.083       .  S
C407       C1843   1.482       .  S
C407        C408   1.405       .  A
C407        C412   1.405       .  A
C408        C409   1.405       .  A
C408        H413   1.084       .  S
C409       C1123   1.478       .  S
C409        C410   1.404       .  A
C410        C411   1.404       .  A
C410        H414   1.084       .  S
C411        C534   1.482       .  S
C411        C412   1.404       .  A
C412        H415   1.084       .  S
C416        C474   1.482       .  S
C416        C417   1.406       .  A
C416        C421   1.405       .  A
C417        C418   1.406       .  A
C417        H422   1.084       .  S
C418       C1723   1.483       .  S
C418        C419   1.404       .  A
C419        C420   1.405       .  A
C419        H423   1.084       .  S
C420        C503   1.484       .  S
C420        C421   1.403       .  A
C421        H424   1.084       .  S
C425       C1543   1.500       .  S
C425        C426   1.414       .  A
C425        C430   1.408       .  A
C426        C427   1.411       .  A
C426        H431   1.083       .  S
C427        C854   1.485       .  S
C427        C428   1.403       .  A
C428        C429   1.398       .  A
C428        H432   1.085       .  S
C429        C494   1.477       .  S
C429        C430   1.399       .  A
C430        H433   1.082       .  S
O434        C442   1.267       .  A
O434       Co454   1.970   1_455  S
O435        C443   1.265   1_455  A
O435       Co455   1.980       .  S
O436        C444   1.269       .  A
O436       Co456   1.994       .  S
O437        C445   1.292   1_545  A
O437       Co457   2.100       .  S
O438        C444   1.273       .  A
O438       Co455   1.995   1_565  S
O439        C445   1.267       .  A
O439       Co454   1.895       .  S
O440        C443   1.266       .  A
O440       Co457   2.012       .  S
O441        C442   1.279       .  A
O441       Co456   2.037       .  S
C442       C1334   1.501       .  S
C443       C1194   1.498   1_655  S
C444        C983   1.477       .  S
C445        C634   1.487       .  S
O446        C459   1.293       .  A
O446       Co454   2.103       .  S
O447        C460   1.269       .  A
O447       Co455   1.997       .  S
O448        C461   1.262       .  A
O448       Co456   1.970   1_655  S
O449        C462   1.273   1_655  A
O449       Co457   1.976       .  S
O450        C462   1.283       .  A
O450       Co455   2.034       .  S
O451        C461   1.268       .  A
O451       Co454   2.025       .  S
O452        C459   1.271   1_545  A
O452       Co457   1.925       .  S
O453        C460   1.268   1_565  A
O453       Co456   1.982       .  S
Co454       O458   2.016   1_655  S
Co455       O458   2.035   1_545  S
Co456       O458   2.039       .  S
Co457       O458   2.024   1_645  S
C459        C554   1.498       .  S
C460        C743   1.474       .  S
C461        C463   1.495       .  S
C462        C894   1.502   1_455  S
C463        C464   1.419       .  A
C463        C468   1.410   1_655  A
C464        C465   1.403       .  A
C464       Br480   1.917       .  S
C465        C466   1.400   1_655  A
C465        H469   1.084       .  S
C466        C470   1.481       .  S
C466        C467   1.405       .  A
C467        C468   1.398       .  A
C467       Br479   1.920       .  S
C468        H471   1.083       .  S
C470        C472   1.402       .  A
C470        C476   1.410       .  A
C472        C473   1.403       .  A
C472        H477   1.084   1_455  S
C473        C474   1.411       .  A
C473       Br481   1.917       .  S
C474        C475   1.403       .  A
C475        C476   1.399       .  A
C475        H478   1.084       .  S
C476       Br482   1.921       .  S
C483        C484   1.415       .  A
C483        C488   1.406       .  A
C484        C485   1.399       .  A
C484       Br500   1.921       .  S
C485        C486   1.400       .  A
C485        H489   1.083       .  S
C486        C490   1.476       .  S
C486        C487   1.406       .  A
C487        C488   1.400       .  A
C487       Br499   1.918       .  S
C488        H491   1.083       .  S
C490        C492   1.399       .  A
C490        C496   1.408       .  A
C492        C493   1.395       .  A
C492        H497   1.084       .  S
C493        C494   1.409       .  A
C493       Br501   1.917       .  S
C494        C495   1.404       .  A
C495        C496   1.403       .  A
C495        H498   1.083       .  S
C496       Br502   1.917       .  S
C503        C504   1.411       .  A
C503        C508   1.407       .  A
C504        C505   1.398       .  A
C504       Br520   1.920       .  S
C505        C506   1.400       .  A
C505        H509   1.083       .  S
C506        C510   1.478       .  S
C506        C507   1.407       .  A
C507        C508   1.403       .  A
C507       Br519   1.918       .  S
C508        H511   1.083       .  S
C510        C512   1.403       .  A
C510        C516   1.407       .  A
C512        C513   1.402       .  A
C512        H517   1.084       .  S
C513        C514   1.411       .  A
C513       Br521   1.919       .  S
C514        C515   1.403       .  A
C515        C516   1.398       .  A
C515        H518   1.084       .  S
C516       Br522   1.918       .  S
C523        C524   1.413       .  A
C523        C528   1.404       .  A
C524        C525   1.403       .  A
C524       Br540   1.919       .  S
C525        C526   1.404       .  A
C525        H529   1.084       .  S
C526        C530   1.485       .  S
C526        C527   1.409       .  A
C527        C528   1.398       .  A
C527       Br539   1.919       .  S
C528        H531   1.084       .  S
C530        C532   1.404       .  A
C530        C536   1.410       .  A
C532        C533   1.400       .  A
C532        H537   1.084       .  S
C533        C534   1.409       .  A
C533       Br541   1.919       .  S
C534        C535   1.404       .  A
C535        C536   1.402       .  A
C535        H538   1.084       .  S
C536       Br542   1.918       .  S
C543        C544   1.419       .  A
C543        C548   1.405       .  A
C544        C545   1.412       .  A
C544       Br560   1.919       .  S
C545        C546   1.408       .  A
C545        H549   1.082   1_565  S
C546        C550   1.503       .  S
C546        C547   1.418       .  A
C547        C548   1.392       .  A
C547       Br559   1.928       .  S
C548        H551   1.083       .  S
C550        C552   1.395       .  A
C550        C556   1.419   1_565  A
C552        C553   1.388       .  A
C552        H557   1.084       .  S
C553        C554   1.416       .  A
C553       Br561   1.908       .  S
C554        C555   1.410   1_565  A
C555        C556   1.417       .  A
C555        H558   1.083       .  S
C556       Br562   1.917       .  S
C563        C564   1.409       .  A
C563        C568   1.403       .  A
C564        C565   1.398       .  A
C564       Br580   1.918       .  S
C565        C566   1.402       .  A
C565        H569   1.083       .  S
C566        C570   1.478       .  S
C566        C567   1.408       .  A
C567        C568   1.402       .  A
C567       Br579   1.917       .  S
C568        H571   1.083       .  S
C570        C572   1.403       .  A
C570        C576   1.406       .  A
C572        C573   1.402       .  A
C572        H577   1.083       .  S
C573        C574   1.411       .  A
C573       Br581   1.919       .  S
C574        C575   1.406       .  A
C575        C576   1.398       .  A
C575        H578   1.083       .  S
C576       Br582   1.918       .  S
C583        C584   1.409       .  A
C583        C588   1.404       .  A
C584        C585   1.402       .  A
C584       Br600   1.918       .  S
C585        C586   1.405       .  A
C585        H589   1.083       .  S
C586        C590   1.480       .  S
C586        C587   1.406       .  A
C587        C588   1.397       .  A
C587       Br599   1.919       .  S
C588        H591   1.084       .  S
C590        C592   1.404       .  A
C590        C596   1.407       .  A
C592        C593   1.402       .  A
C592        H597   1.083       .  S
C593        C594   1.411       .  A
C593       Br601   1.919       .  S
C594        C595   1.405       .  A
C595        C596   1.398       .  A
C595        H598   1.083       .  S
C596       Br602   1.919       .  S
C603        C604   1.414       .  A
C603        C608   1.406       .  A
C604        C605   1.398       .  A
C604       Br620   1.922       .  S
C605        C606   1.404       .  A
C605        H609   1.083       .  S
C606        C610   1.489       .  S
C606        C607   1.412       .  A
C607        C608   1.398       .  A
C607       Br619   1.921       .  S
C608        H611   1.083       .  S
C610        C612   1.404       .  A
C610        C616   1.412       .  A
C612        C613   1.400       .  A
C612        H617   1.083       .  S
C613        C614   1.416       .  A
C613       Br621   1.922       .  S
C614        C615   1.407       .  A
C615        C616   1.397       .  A
C615        H618   1.083       .  S
C616       Br622   1.922       .  S
C623        C624   1.410       .  A
C623        C628   1.406       .  A
C624        C625   1.399       .  A
C624       Br640   1.919       .  S
C625        C626   1.403       .  A
C625        H629   1.084       .  S
C626        C630   1.477       .  S
C626        C627   1.405       .  A
C627        C628   1.401       .  A
C627       Br639   1.917   1_545  S
C628        H631   1.083       .  S
C630        C632   1.400       .  A
C630        C636   1.404   1_545  A
C632        C633   1.399       .  A
C632        H637   1.084       .  S
C633        C634   1.416   1_545  A
C633       Br641   1.919       .  S
C634        C635   1.407       .  A
C635        C636   1.399       .  A
C635        H638   1.081       .  S
C636       Br642   1.917       .  S
C643        C644   1.408       .  A
C643        C648   1.401       .  A
C644        C645   1.399       .  A
C644       Br660   1.919       .  S
C645        C646   1.402       .  A
C645        H649   1.084       .  S
C646        C650   1.475       .  S
C646        C647   1.408       .  A
C647        C648   1.398       .  A
C647       Br659   1.918       .  S
C648        H651   1.084       .  S
C650        C652   1.400       .  A
C650        C656   1.405       .  A
C652        C653   1.399       .  A
C652        H657   1.084       .  S
C653        C654   1.415       .  A
C653       Br661   1.920       .  S
C654        C655   1.408       .  A
C655        C656   1.399       .  A
C655        H658   1.084       .  S
C656       Br662   1.919       .  S
C663        C664   1.410       .  A
C663        C668   1.402       .  A
C664        C665   1.399       .  A
C664       Br680   1.919       .  S
C665        C666   1.402       .  A
C665        H669   1.084       .  S
C666        C670   1.475       .  S
C666        C667   1.408       .  A
C667        C668   1.396       .  A
C667       Br679   1.919       .  S
C668        H671   1.084       .  S
C670        C672   1.401       .  A
C670        C676   1.408       .  A
C672        C673   1.396       .  A
C672        H677   1.083       .  S
C673        C674   1.410       .  A
C673       Br681   1.921       .  S
C674        C675   1.402       .  A
C675        C676   1.399       .  A
C675        H678   1.083       .  S
C676       Br682   1.918       .  S
C683        C684   1.413       .  A
C683        C688   1.406       .  A
C684        C685   1.399       .  A
C684       Br700   1.920       .  S
C685        C686   1.401       .  A
C685        H689   1.084       .  S
C686        C690   1.474       .  S
C686        C687   1.405       .  A
C687        C688   1.397       .  A
C687       Br699   1.919       .  S
C688        H691   1.084       .  S
C690        C692   1.404       .  A
C690        C696   1.407       .  A
C692        C693   1.399       .  A
C692        H697   1.084       .  S
C693        C694   1.406       .  A
C693       Br701   1.918       .  S
C694        C695   1.401       .  A
C695        C696   1.397       .  A
C695        H698   1.084       .  S
C696       Br702   1.918       .  S
C703        C704   1.414       .  A
C703        C708   1.406       .  A
C704        C705   1.399       .  A
C704       Br720   1.921       .  S
C705        C706   1.401       .  A
C705        H709   1.084       .  S
C706        C710   1.481       .  S
C706        C707   1.408       .  A
C707        C708   1.402       .  A
C707       Br719   1.918       .  S
C708        H711   1.083       .  S
C710        C712   1.403       .  A
C710        C716   1.410       .  A
C712        C713   1.402       .  A
C712        H717   1.083       .  S
C713        C714   1.408       .  A
C713       Br721   1.918       .  S
C714        C715   1.402       .  A
C715        C716   1.400       .  A
C715        H718   1.083       .  S
C716       Br722   1.919       .  S
C723        C724   1.410       .  A
C723        C728   1.403       .  A
C724        C725   1.398       .  A
C724       Br740   1.920       .  S
C725        C726   1.401       .  A
C725        H729   1.084       .  S
C726        C730   1.478       .  S
C726        C727   1.408       .  A
C727        C728   1.402       .  A
C727       Br739   1.917       .  S
C728        H731   1.083       .  S
C730        C732   1.400       .  A
C730        C736   1.407       .  A
C732        C733   1.400       .  A
C732        H737   1.083       .  S
C733        C734   1.415       .  A
C733       Br741   1.921       .  S
C734        C735   1.405       .  A
C735        C736   1.400       .  A
C735        H738   1.083       .  S
C736       Br742   1.918       .  S
C743        C744   1.409       .  A
C743        C748   1.405   1_545  A
C744        C745   1.397       .  A
C744       Br760   1.915       .  S
C745        C746   1.402       .  A
C745        H749   1.084       .  S
C746        C750   1.481       .  S
C746        C747   1.409   1_545  A
C747        C748   1.403       .  A
C747       Br759   1.918       .  S
C748        H751   1.084       .  S
C750        C752   1.404       .  A
C750        C756   1.408       .  A
C752        C753   1.399       .  A
C752        H757   1.084       .  S
C753        C754   1.409       .  A
C753       Br761   1.920       .  S
C754        C755   1.406       .  A
C755        C756   1.401       .  A
C755        H758   1.084       .  S
C756       Br762   1.919       .  S
C763        C764   1.416       .  A
C763        C768   1.410       .  A
C764        C765   1.399       .  A
C764       Br780   1.920       .  S
C765        C766   1.403       .  A
C765        H769   1.084       .  S
C766        C770   1.485       .  S
C766        C767   1.408       .  A
C767        C768   1.400       .  A
C767       Br779   1.920       .  S
C768        H771   1.083       .  S
C770        C772   1.403       .  A
C770        C776   1.410       .  A
C772        C773   1.400       .  A
C772        H777   1.084       .  S
C773        C774   1.414       .  A
C773       Br781   1.921       .  S
C774        C775   1.406       .  A
C775        C776   1.398       .  A
C775        H778   1.084       .  S
C776       Br782   1.920       .  S
C783        C784   1.416       .  A
C783        C788   1.406       .  A
C784        C785   1.407       .  A
C784       Br800   1.918   1_655  S
C785        C786   1.403       .  A
C785        H789   1.083   1_655  S
C786        C790   1.485       .  S
C786        C787   1.408       .  A
C787        C788   1.397       .  A
C787       Br799   1.920       .  S
C788        H791   1.083       .  S
C790        C792   1.396       .  A
C790        C796   1.411   1_655  A
C792        C793   1.394       .  A
C792        H797   1.085       .  S
C793        C794   1.413   1_655  A
C793       Br801   1.909       .  S
C794        C795   1.408       .  A
C795        C796   1.411       .  A
C795        H798   1.084       .  S
C796       Br802   1.916       .  S
C803        C804   1.415       .  A
C803        C808   1.404       .  A
C804        C805   1.401       .  A
C804       Br820   1.921       .  S
C805        C806   1.400       .  A
C805        H809   1.084       .  S
C806        C810   1.486       .  S
C806        C807   1.411       .  A
C807        C808   1.404       .  A
C807       Br819   1.916       .  S
C808        H811   1.084       .  S
C810        C812   1.400   1_655  A
C810        C816   1.407       .  A
C812        C813   1.405       .  A
C812        H817   1.084       .  S
C813        C814   1.423       .  A
C813       Br821   1.920       .  S
C814        C815   1.406   1_455  A
C815        C816   1.401       .  A
C815        H818   1.084       .  S
C816       Br822   1.917       .  S
C823        C824   1.422       .  A
C823        C828   1.412       .  A
C824        C825   1.406       .  A
C824       Br840   1.917   1_455  S
C825        C826   1.403       .  A
C825        H829   1.083   1_455  S
C826        C830   1.489       .  S
C826        C827   1.409       .  A
C827        C828   1.394       .  A
C827       Br839   1.925       .  S
C828        H831   1.081       .  S
C830        C832   1.397       .  A
C830        C836   1.414   1_455  A
C832        C833   1.387       .  A
C832        H837   1.084       .  S
C833        C834   1.416       .  A
C833       Br841   1.916       .  S
C834        C835   1.407   1_455  A
C835        C836   1.409       .  A
C835        H838   1.083       .  S
C836       Br842   1.916       .  S
C843        C844   1.412   1_554  A
C843        C848   1.411       .  A
C844        C845   1.406       .  A
C844       Br860   1.913       .  S
C845        C846   1.404   1_556  A
C845        H849   1.083       .  S
C846        C850   1.476       .  S
C846        C847   1.401       .  A
C847        C848   1.390       .  A
C847       Br859   1.920       .  S
C848        H851   1.082       .  S
C850        C852   1.399       .  A
C850        C856   1.408       .  A
C852        C853   1.400       .  A
C852        H857   1.084       .  S
C853        C854   1.414       .  A
C853       Br861   1.915       .  S
C854        C855   1.403       .  A
C855        C856   1.398       .  A
C855        H858   1.084       .  S
C856       Br862   1.914       .  S
C863        C864   1.419   1_554  A
C863        C868   1.411       .  A
C864        C865   1.406   1_556  A
C864       Br880   1.919       .  S
C865        C866   1.403       .  A
C865        H869   1.083   1_554  S
C866        C870   1.498       .  S
C866        C867   1.411       .  A
C867        C868   1.408       .  A
C867       Br879   1.919       .  S
C868        H871   1.083       .  S
C870        C872   1.405       .  A
C870        C876   1.414       .  A
C872        C873   1.406       .  A
C872        H877   1.083       .  S
C873        C874   1.411       .  A
C873       Br881   1.917       .  S
C874        C875   1.404       .  A
C875        C876   1.407       .  A
C875        H878   1.083       .  S
C876       Br882   1.919       .  S
C883        C884   1.410       .  A
C883        C888   1.408       .  A
C884        C885   1.403       .  A
C884       Br900   1.918       .  S
C885        C886   1.405       .  A
C885        H889   1.083       .  S
C886        C890   1.488       .  S
C886        C887   1.408       .  A
C887        C888   1.405       .  A
C887       Br899   1.917       .  S
C888        H891   1.082       .  S
C890        C892   1.403       .  A
C890        C896   1.404   1_655  A
C892        C893   1.407       .  A
C892        H897   1.093       .  S
C893        C894   1.421       .  A
C893       Br901   1.921       .  S
C894        C895   1.412   1_655  A
C895        C896   1.398       .  A
C895        H898   1.091       .  S
C896       Br902   1.919       .  S
C903        C904   1.415       .  A
C903        C908   1.408       .  A
C904        C905   1.402       .  A
C904       Br920   1.921       .  S
C905        C906   1.401       .  A
C905        H909   1.084       .  S
C906        C910   1.481       .  S
C906        C907   1.406       .  A
C907        C908   1.401       .  A
C907       Br919   1.918       .  S
C908        H911   1.084       .  S
C910        C912   1.404       .  A
C910        C916   1.408       .  A
C912        C913   1.404       .  A
C912        H917   1.083       .  S
C913        C914   1.410       .  A
C913       Br921   1.918       .  S
C914        C915   1.403       .  A
C915        C916   1.399       .  A
C915        H918   1.084       .  S
C916       Br922   1.918       .  S
C923        C924   1.417       .  A
C923        C928   1.408       .  A
C924        C925   1.404       .  A
C924       Br940   1.920       .  S
C925        C926   1.405       .  A
C925        H929   1.083       .  S
C926        C930   1.493       .  S
C926        C927   1.410       .  A
C927        C928   1.399       .  A
C927       Br939   1.921       .  S
C928        H931   1.082       .  S
C930        C932   1.405       .  A
C930        C936   1.412       .  A
C932        C933   1.400       .  A
C932        H937   1.084       .  S
C933        C934   1.413       .  A
C933       Br941   1.919       .  S
C934        C935   1.407       .  A
C935        C936   1.403       .  A
C935        H938   1.084       .  S
C936       Br942   1.920       .  S
C943        C944   1.412       .  A
C943        C948   1.405       .  A
C944        C945   1.401       .  A
C944       Br960   1.920       .  S
C945        C946   1.402       .  A
C945        H949   1.083       .  S
C946        C950   1.482       .  S
C946        C947   1.408       .  A
C947        C948   1.402       .  A
C947       Br959   1.917       .  S
C948        H951   1.083       .  S
C950        C952   1.402       .  A
C950        C956   1.409       .  A
C952        C953   1.400       .  A
C952        H957   1.083       .  S
C953        C954   1.409       .  A
C953       Br961   1.918       .  S
C954        C955   1.405       .  A
C955        C956   1.404       .  A
C955        H958   1.082       .  S
C956       Br962   1.918       .  S
C963        C964   1.420       .  A
C963        C968   1.409       .  A
C964        C965   1.401       .  A
C964       Br980   1.925       .  S
C965        C966   1.404       .  A
C965        H969   1.084       .  S
C966        C970   1.500       .  S
C966        C967   1.413       .  A
C967        C968   1.406       .  A
C967       Br979   1.918       .  S
C968        H971   1.083       .  S
C970        C972   1.411       .  A
C970        C976   1.411       .  A
C972        C973   1.411       .  A
C972        H977   1.085       .  S
C973        C974   1.411       .  A
C973       Br981   1.916   1_455  S
C974        C975   1.404       .  A
C975        C976   1.397       .  A
C975        H978   1.085       .  S
C976       Br982   1.924       .  S
C983        C984   1.410       .  A
C983        C988   1.405       .  A
C984        C985   1.403       .  A
C984      Br1000   1.918   1_565  S
C985        C986   1.404       .  A
C985        H989   1.084       .  S
C986        C990   1.486       .  S
C986        C987   1.409       .  A
C987        C988   1.401       .  A
C987       Br999   1.919       .  S
C988        H991   1.084       .  S
C990        C992   1.400       .  A
C990        C996   1.412       .  A
C992        C993   1.401       .  A
C992        H997   1.083       .  S
C993        C994   1.416       .  A
C993      Br1001   1.921       .  S
C994        C995   1.404       .  A
C995        C996   1.405       .  A
C995        H998   1.083       .  S
C996      Br1002   1.918       .  S
C1003      C1004   1.411       .  A
C1003      C1008   1.406       .  A
C1004      C1005   1.397       .  A
C1004     Br1020   1.920       .  S
C1005      C1006   1.401       .  A
C1005      H1009   1.084       .  S
C1006      C1010   1.477       .  S
C1006      C1007   1.407       .  A
C1007      C1008   1.400       .  A
C1007     Br1019   1.918       .  S
C1008      H1011   1.084       .  S
C1010      C1012   1.404       .  A
C1010      C1016   1.407       .  A
C1012      C1013   1.401       .  A
C1012      H1017   1.084       .  S
C1013      C1014   1.409       .  A
C1013     Br1021   1.918       .  S
C1014      C1015   1.403       .  A
C1015      C1016   1.397       .  A
C1015      H1018   1.084       .  S
C1016     Br1022   1.919       .  S
C1023      C1024   1.412       .  A
C1023      C1028   1.403       .  A
C1024      C1025   1.397       .  A
C1024     Br1040   1.921       .  S
C1025      C1026   1.402       .  A
C1025      H1029   1.084       .  S
C1026      C1030   1.475       .  S
C1026      C1027   1.408       .  A
C1027      C1028   1.396       .  A
C1027     Br1039   1.920       .  S
C1028      H1031   1.084       .  S
C1030      C1032   1.403       .  A
C1030      C1036   1.409       .  A
C1032      C1033   1.396       .  A
C1032      H1037   1.083       .  S
C1033      C1034   1.407       .  A
C1033     Br1041   1.918       .  S
C1034      C1035   1.403       .  A
C1035      C1036   1.397       .  A
C1035      H1038   1.083       .  S
C1036     Br1042   1.920       .  S
C1043      C1044   1.407       .  A
C1043      C1048   1.402       .  A
C1044      C1045   1.401       .  A
C1044     Br1060   1.918       .  S
C1045      C1046   1.404       .  A
C1045      H1049   1.084       .  S
C1046      C1050   1.473       .  S
C1046      C1047   1.405       .  A
C1047      C1048   1.394       .  A
C1047     Br1059   1.919       .  S
C1048      H1051   1.084       .  S
C1050      C1052   1.402       .  A
C1050      C1056   1.405       .  A
C1052      C1053   1.397       .  A
C1052      H1057   1.084       .  S
C1053      C1054   1.409       .  A
C1053     Br1061   1.920       .  S
C1054      C1055   1.405       .  A
C1055      C1056   1.398       .  A
C1055      H1058   1.084       .  S
C1056     Br1062   1.918       .  S
C1063      C1064   1.412       .  A
C1063      C1068   1.406   1_556  A
C1064      C1065   1.409       .  A
C1064     Br1080   1.917       .  S
C1065      C1066   1.410   1_556  A
C1065      H1069   1.083       .  S
C1066      C1070   1.494       .  S
C1066      C1067   1.411       .  A
C1067      C1068   1.393       .  A
C1067     Br1079   1.923       .  S
C1068      H1071   1.083       .  S
C1070      C1072   1.401       .  A
C1070      C1076   1.411       .  A
C1072      C1073   1.397       .  A
C1072      H1077   1.083       .  S
C1073      C1074   1.420       .  A
C1073     Br1081   1.921       .  S
C1074      C1075   1.412       .  A
C1075      C1076   1.407       .  A
C1075      H1078   1.082       .  S
C1076     Br1082   1.920   1_554  S
C1083      C1084   1.414   1_554  A
C1083      C1088   1.407       .  A
C1084      C1085   1.399       .  A
C1084     Br1100   1.920       .  S
C1085      C1086   1.402       .  A
C1085      H1089   1.084       .  S
C1086      C1090   1.479       .  S
C1086      C1087   1.406   1_556  A
C1087      C1088   1.399       .  A
C1087     Br1099   1.918       .  S
C1088      H1091   1.083       .  S
C1090      C1092   1.403       .  A
C1090      C1096   1.407       .  A
C1092      C1093   1.399       .  A
C1092      H1097   1.083       .  S
C1093      C1094   1.409       .  A
C1093     Br1101   1.917       .  S
C1094      C1095   1.406       .  A
C1095      C1096   1.401       .  A
C1095      H1098   1.083       .  S
C1096     Br1102   1.918       .  S
C1103      C1104   1.416       .  A
C1103      C1108   1.411   1_545  A
C1104      C1105   1.407       .  A
C1104     Br1120   1.920       .  S
C1105      C1106   1.407       .  A
C1105      H1109   1.083       .  S
C1106      C1110   1.499       .  S
C1106      C1107   1.410       .  A
C1107      C1108   1.403   1_545  A
C1107     Br1119   1.921   1_545  S
C1108      H1111   1.083       .  S
C1110      C1112   1.407       .  A
C1110      C1116   1.413       .  A
C1112      C1113   1.404       .  A
C1112      H1117   1.084       .  S
C1113      C1114   1.410       .  A
C1113     Br1121   1.918       .  S
C1114      C1115   1.406       .  A
C1115      C1116   1.407       .  A
C1115      H1118   1.084       .  S
C1116     Br1122   1.919       .  S
C1123      C1124   1.409       .  A
C1123      C1128   1.401       .  A
C1124      C1125   1.402       .  A
C1124     Br1140   1.918       .  S
C1125      C1126   1.403       .  A
C1125      H1129   1.084   1_565  S
C1126      C1130   1.484       .  S
C1126      C1127   1.412       .  A
C1127      C1128   1.400       .  A
C1127     Br1139   1.921       .  S
C1128      H1131   1.084       .  S
C1130      C1132   1.400   1_565  A
C1130      C1136   1.406       .  A
C1132      C1133   1.402       .  A
C1132      H1137   1.084       .  S
C1133      C1134   1.421       .  A
C1133     Br1141   1.923       .  S
C1134      C1135   1.410   1_545  A
C1135      C1136   1.400       .  A
C1135      H1138   1.083       .  S
C1136     Br1142   1.919       .  S
C1143      C1144   1.409       .  A
C1143      C1148   1.405       .  A
C1144      C1145   1.397       .  A
C1144     Br1160   1.921       .  S
C1145      C1146   1.405       .  A
C1145      H1149   1.084       .  S
C1146      C1150   1.487       .  S
C1146      C1147   1.410       .  A
C1147      C1148   1.403       .  A
C1147     Br1159   1.918       .  S
C1148      H1151   1.084       .  S
C1150      C1152   1.409       .  A
C1150      C1156   1.409       .  A
C1152      C1153   1.406       .  A
C1152      H1157   1.083       .  S
C1153      C1154   1.406       .  A
C1153     Br1161   1.916       .  S
C1154      C1155   1.403       .  A
C1155      C1156   1.395       .  A
C1155      H1158   1.084   1_554  S
C1156     Br1162   1.921       .  S
C1163      C1164   1.409       .  A
C1163      C1168   1.404       .  A
C1164      C1165   1.400       .  A
C1164     Br1180   1.919   1_556  S
C1165      C1166   1.403       .  A
C1165      H1169   1.083       .  S
C1166      C1170   1.478       .  S
C1166      C1167   1.408       .  A
C1167      C1168   1.396       .  A
C1167     Br1179   1.920       .  S
C1168      H1171   1.084       .  S
C1170      C1172   1.400       .  A
C1170      C1176   1.411       .  A
C1172      C1173   1.399       .  A
C1172      H1177   1.084       .  S
C1173      C1174   1.412       .  A
C1173     Br1181   1.919       .  S
C1174      C1175   1.402       .  A
C1175      C1176   1.398       .  A
C1175      H1178   1.084       .  S
C1176     Br1182   1.920       .  S
C1183      C1184   1.409       .  A
C1183      C1188   1.403       .  A
C1184      C1185   1.407       .  A
C1184     Br1200   1.916       .  S
C1185      C1186   1.406       .  A
C1185      H1189   1.083       .  S
C1186      C1190   1.489       .  S
C1186      C1187   1.410       .  A
C1187      C1188   1.399       .  A
C1187     Br1199   1.920       .  S
C1188      H1191   1.084       .  S
C1190      C1192   1.401       .  A
C1190      C1196   1.409       .  A
C1192      C1193   1.405   1_455  A
C1192      H1197   1.083   1_455  S
C1193      C1194   1.422   1_655  A
C1193     Br1201   1.922       .  S
C1194      C1195   1.409       .  A
C1195      C1196   1.402       .  A
C1195      H1198   1.083       .  S
C1196     Br1202   1.920       .  S
C1203      C1204   1.418   1_565  A
C1203      C1208   1.411       .  A
C1204      C1205   1.403       .  A
C1204     Br1220   1.922       .  S
C1205      C1206   1.404       .  A
C1205      H1209   1.083       .  S
C1206      C1210   1.496       .  S
C1206      C1207   1.410   1_545  A
C1207      C1208   1.404       .  A
C1207     Br1219   1.919       .  S
C1208      H1211   1.083       .  S
C1210      C1212   1.406       .  A
C1210      C1216   1.413       .  A
C1212      C1213   1.401       .  A
C1212      H1217   1.081       .  S
C1213      C1214   1.410       .  A
C1213     Br1221   1.919       .  S
C1214      C1215   1.407       .  A
C1215      C1216   1.406       .  A
C1215      H1218   1.082       .  S
C1216     Br1222   1.919   1_545  S
C1223      C1224   1.411       .  A
C1223      C1228   1.401       .  A
C1224      C1225   1.401       .  A
C1224     Br1240   1.918       .  S
C1225      C1226   1.401       .  A
C1225      H1229   1.083       .  S
C1226      C1230   1.479       .  S
C1226      C1227   1.409       .  A
C1227      C1228   1.400       .  A
C1227     Br1239   1.916       .  S
C1228      H1231   1.083       .  S
C1230      C1232   1.393   1_556  A
C1230      C1236   1.407       .  A
C1232      C1233   1.396       .  A
C1232      H1237   1.082       .  S
C1233      C1234   1.426   1_554  A
C1233     Br1241   1.921       .  S
C1234      C1235   1.406       .  A
C1235      C1236   1.404       .  A
C1235      H1238   1.083       .  S
C1236     Br1242   1.915       .  S
C1243      C1244   1.411       .  A
C1243      C1248   1.404       .  A
C1244      C1245   1.402       .  A
C1244     Br1260   1.919       .  S
C1245      C1246   1.403       .  A
C1245      H1249   1.084       .  S
C1246      C1250   1.486       .  S
C1246      C1247   1.410       .  A
C1247      C1248   1.402       .  A
C1247     Br1259   1.919       .  S
C1248      H1251   1.084       .  S
C1250      C1252   1.404       .  A
C1250      C1256   1.410       .  A
C1252      C1253   1.402       .  A
C1252      H1257   1.084       .  S
C1253      C1254   1.410       .  A
C1253     Br1261   1.918       .  S
C1254      C1255   1.405       .  A
C1255      C1256   1.402       .  A
C1255      H1258   1.084       .  S
C1256     Br1262   1.919       .  S
C1263      C1264   1.408       .  A
C1263      C1268   1.404       .  A
C1264      C1265   1.400       .  A
C1264     Br1280   1.919       .  S
C1265      C1266   1.405       .  A
C1265      H1269   1.083       .  S
C1266      C1270   1.480       .  S
C1266      C1267   1.407       .  A
C1267      C1268   1.398       .  A
C1267     Br1279   1.919       .  S
C1268      H1271   1.083       .  S
C1270      C1272   1.405       .  A
C1270      C1276   1.408       .  A
C1272      C1273   1.403       .  A
C1272      H1277   1.083       .  S
C1273      C1274   1.409       .  A
C1273     Br1281   1.918       .  S
C1274      C1275   1.403       .  A
C1275      C1276   1.396       .  A
C1275      H1278   1.084       .  S
C1276     Br1282   1.920       .  S
C1283      C1284   1.417       .  A
C1283      C1288   1.406       .  A
C1284      C1285   1.400       .  A
C1284     Br1300   1.923       .  S
C1285      C1286   1.404       .  A
C1285      H1289   1.083       .  S
C1286      C1290   1.489       .  S
C1286      C1287   1.412       .  A
C1287      C1288   1.399       .  A
C1287     Br1299   1.921       .  S
C1288      H1291   1.083       .  S
C1290      C1292   1.405       .  A
C1290      C1296   1.411       .  A
C1292      C1293   1.399       .  A
C1292      H1297   1.083       .  S
C1293      C1294   1.412       .  A
C1293     Br1301   1.921       .  S
C1294      C1295   1.408       .  A
C1295      C1296   1.400       .  A
C1295      H1298   1.083       .  S
C1296     Br1302   1.921       .  S
C1303      C1304   1.423       .  A
C1303      C1308   1.409       .  A
C1304      C1305   1.405       .  A
C1304     Br1320   1.918   1_556  S
C1305      C1306   1.402       .  A
C1305      H1309   1.083   1_556  S
C1306      C1310   1.489       .  S
C1306      C1307   1.411       .  A
C1307      C1308   1.394       .  A
C1307     Br1319   1.925       .  S
C1308      H1311   1.081       .  S
C1310      C1312   1.399       .  A
C1310      C1316   1.416   1_556  A
C1312      C1313   1.387       .  A
C1312      H1317   1.084       .  S
C1313      C1314   1.413       .  A
C1313     Br1321   1.923       .  S
C1314      C1315   1.404   1_556  A
C1315      C1316   1.408       .  A
C1315      H1318   1.083       .  S
C1316     Br1322   1.917       .  S
C1323      C1324   1.410       .  A
C1323      C1328   1.405       .  A
C1324      C1325   1.403       .  A
C1324     Br1340   1.919       .  S
C1325      C1326   1.406       .  A
C1325      H1329   1.083       .  S
C1326      C1330   1.490       .  S
C1326      C1327   1.409       .  A
C1327      C1328   1.403       .  A
C1327     Br1339   1.917   1_655  S
C1328      H1331   1.083       .  S
C1330      C1332   1.403       .  A
C1330      C1336   1.406   1_655  A
C1332      C1333   1.405       .  A
C1332      H1337   1.083       .  S
C1333      C1334   1.421   1_655  A
C1333     Br1341   1.921       .  S
C1334      C1335   1.413       .  A
C1335      C1336   1.402       .  A
C1335      H1338   1.083       .  S
C1336     Br1342   1.918       .  S
C1343      C1344   1.417       .  A
C1343      C1348   1.408       .  A
C1344      C1345   1.403       .  A
C1344     Br1360   1.922       .  S
C1345      C1346   1.405       .  A
C1345      H1349   1.083       .  S
C1346      C1350   1.495       .  S
C1346      C1347   1.412       .  A
C1347      C1348   1.401       .  A
C1347     Br1359   1.921       .  S
C1348      H1351   1.082       .  S
C1350      C1352   1.404       .  A
C1350      C1356   1.412       .  A
C1352      C1353   1.402       .  A
C1352      H1357   1.083       .  S
C1353      C1354   1.418       .  A
C1353     Br1361   1.923       .  S
C1354      C1355   1.409       .  A
C1355      C1356   1.402       .  A
C1355      H1358   1.082       .  S
C1356     Br1362   1.921       .  S
C1363      C1364   1.413       .  A
C1363      C1368   1.405       .  A
C1364      C1365   1.401       .  A
C1364     Br1380   1.920       .  S
C1365      C1366   1.404       .  A
C1365      H1369   1.083       .  S
C1366      C1370   1.491       .  S
C1366      C1367   1.412       .  A
C1367      C1368   1.404       .  A
C1367     Br1379   1.919       .  S
C1368      H1371   1.083       .  S
C1370      C1372   1.406       .  A
C1370      C1376   1.412       .  A
C1372      C1373   1.402       .  A
C1372      H1377   1.084       .  S
C1373      C1374   1.412       .  A
C1373     Br1381   1.920       .  S
C1374      C1375   1.405       .  A
C1375      C1376   1.401       .  A
C1375      H1378   1.084       .  S
C1376     Br1382   1.919       .  S
C1383      C1384   1.407       .  A
C1383      C1388   1.406       .  A
C1384      C1385   1.399       .  A
C1384     Br1400   1.917       .  S
C1385      C1386   1.403       .  A
C1385      H1389   1.084       .  S
C1386      C1390   1.483       .  S
C1386      C1387   1.408       .  A
C1387      C1388   1.406       .  A
C1387     Br1399   1.917   1_565  S
C1388      H1391   1.083       .  S
C1390      C1392   1.403       .  A
C1390      C1396   1.404   1_565  A
C1392      C1393   1.406       .  A
C1392      H1397   1.083       .  S
C1393      C1394   1.418   1_565  A
C1393     Br1401   1.920       .  S
C1394      C1395   1.412       .  A
C1395      C1396   1.399       .  A
C1395      H1398   1.083       .  S
C1396     Br1402   1.918       .  S
C1403      C1404   1.410       .  A
C1403      C1408   1.405       .  A
C1404      C1405   1.401       .  A
C1404     Br1420   1.919       .  S
C1405      C1406   1.404       .  A
C1405      H1409   1.084       .  S
C1406      C1410   1.487       .  S
C1406      C1407   1.412       .  A
C1407      C1408   1.403       .  A
C1407     Br1419   1.919       .  S
C1408      H1411   1.084       .  S
C1410      C1412   1.404       .  A
C1410      C1416   1.411       .  A
C1412      C1413   1.401       .  A
C1412      H1417   1.083       .  S
C1413      C1414   1.409       .  A
C1413     Br1421   1.918       .  S
C1414      C1415   1.404       .  A
C1415      C1416   1.404       .  A
C1415      H1418   1.083       .  S
C1416     Br1422   1.918       .  S
C1423      C1424   1.413       .  A
C1423      C1428   1.406       .  A
C1424      C1425   1.401       .  A
C1424     Br1440   1.919       .  S
C1425      C1426   1.401       .  A
C1425      H1429   1.083       .  S
C1426      C1430   1.480       .  S
C1426      C1427   1.408       .  A
C1427      C1428   1.400       .  A
C1427     Br1439   1.917       .  S
C1428      H1431   1.083       .  S
C1430      C1432   1.402       .  A
C1430      C1436   1.403       .  A
C1432      C1433   1.406       .  A
C1432      H1437   1.083       .  S
C1433      C1434   1.419       .  A
C1433     Br1441   1.922       .  S
C1434      C1435   1.408       .  A
C1435      C1436   1.395       .  A
C1435      H1438   1.083       .  S
C1436     Br1442   1.919       .  S
C1443      C1444   1.418       .  A
C1443      C1448   1.410       .  A
C1444      C1445   1.405       .  A
C1444     Br1460   1.921       .  S
C1445      C1446   1.403       .  A
C1445      H1449   1.083       .  S
C1446      C1450   1.480       .  S
C1446      C1447   1.404       .  A
C1447      C1448   1.396       .  A
C1447     Br1459   1.920       .  S
C1448      H1451   1.083       .  S
C1450      C1452   1.402       .  A
C1450      C1456   1.407       .  A
C1452      C1453   1.403       .  A
C1452      H1457   1.083       .  S
C1453      C1454   1.416       .  A
C1453     Br1461   1.920       .  S
C1454      C1455   1.403       .  A
C1455      C1456   1.397       .  A
C1455      H1458   1.084       .  S
C1456     Br1462   1.915       .  S
C1463      C1464   1.421       .  A
C1463      C1468   1.411       .  A
C1464      C1465   1.406       .  A
C1464     Br1480   1.922       .  S
C1465      C1466   1.404       .  A
C1465      H1469   1.084       .  S
C1466      C1470   1.498       .  S
C1466      C1467   1.411       .  A
C1467      C1468   1.405       .  A
C1467     Br1479   1.920       .  S
C1468      H1471   1.083       .  S
C1470      C1472   1.406       .  A
C1470      C1476   1.414       .  A
C1472      C1473   1.406       .  A
C1472      H1477   1.083       .  S
C1473      C1474   1.411       .  A
C1473     Br1481   1.917       .  S
C1474      C1475   1.406       .  A
C1475      C1476   1.406       .  A
C1475      H1478   1.083       .  S
C1476     Br1482   1.921       .  S
C1483      C1484   1.409       .  A
C1483      C1488   1.405       .  A
C1484      C1485   1.399       .  A
C1484     Br1500   1.917       .  S
C1485      C1486   1.404       .  A
C1485      H1489   1.081       .  S
C1486      C1490   1.485       .  S
C1486      C1487   1.408       .  A
C1487      C1488   1.403       .  A
C1487     Br1499   1.917       .  S
C1488      H1491   1.084       .  S
C1490      C1492   1.402       .  A
C1490      C1496   1.406       .  A
C1492      C1493   1.402       .  A
C1492      H1497   1.084       .  S
C1493      C1494   1.419       .  A
C1493     Br1501   1.922       .  S
C1494      C1495   1.412       .  A
C1495      C1496   1.402       .  A
C1495      H1498   1.083       .  S
C1496     Br1502   1.918       .  S
C1503      C1504   1.413       .  A
C1503      C1508   1.405       .  A
C1504      C1505   1.404       .  A
C1504     Br1520   1.920       .  S
C1505      C1506   1.403       .  A
C1505      H1509   1.084       .  S
C1506      C1510   1.484       .  S
C1506      C1507   1.409       .  A
C1507      C1508   1.398       .  A
C1507     Br1519   1.920       .  S
C1508      H1511   1.084       .  S
C1510      C1512   1.401       .  A
C1510      C1516   1.411       .  A
C1512      C1513   1.402       .  A
C1512      H1517   1.084       .  S
C1513      C1514   1.414       .  A
C1513     Br1521   1.920       .  S
C1514      C1515   1.403       .  A
C1515      C1516   1.401       .  A
C1515      H1518   1.084       .  S
C1516     Br1522   1.920       .  S
C1523      C1524   1.417       .  A
C1523      C1528   1.409       .  A
C1524      C1525   1.406       .  A
C1524     Br1540   1.918       .  S
C1525      C1526   1.406       .  A
C1525      H1529   1.083       .  S
C1526      C1530   1.492       .  S
C1526      C1527   1.410       .  A
C1527      C1528   1.395       .  A
C1527     Br1539   1.923       .  S
C1528      H1531   1.083       .  S
C1530      C1532   1.400       .  A
C1530      C1536   1.415       .  A
C1532      C1533   1.392       .  A
C1532      H1537   1.083       .  S
C1533      C1534   1.414       .  A
C1533     Br1541   1.919       .  S
C1534      C1535   1.407       .  A
C1535      C1536   1.409       .  A
C1535      H1538   1.083       .  S
C1536     Br1542   1.918       .  S
C1543      C1544   1.416       .  A
C1543      C1548   1.409       .  A
C1544      C1545   1.398       .  A
C1544     Br1560   1.925       .  S
C1545      C1546   1.405       .  A
C1545      H1549   1.083       .  S
C1546      C1550   1.503       .  S
C1546      C1547   1.417       .  A
C1547      C1548   1.407       .  A
C1547     Br1559   1.921       .  S
C1548      H1551   1.083       .  S
C1550      C1552   1.412       .  A
C1550      C1556   1.417       .  A
C1552      C1553   1.409       .  A
C1552      H1557   1.082       .  S
C1553      C1554   1.406       .  A
C1553     Br1561   1.912       .  S
C1554      C1555   1.403       .  A
C1555      C1556   1.397       .  A
C1555      H1558   1.083       .  S
C1556     Br1562   1.924       .  S
C1563      C1564   1.408       .  A
C1563      C1568   1.405       .  A
C1564      C1565   1.404       .  A
C1564     Br1580   1.918       .  S
C1565      C1566   1.405       .  A
C1565      H1569   1.083       .  S
C1566      C1570   1.490       .  S
C1566      C1567   1.410       .  A
C1567      C1568   1.406       .  A
C1567     Br1579   1.917       .  S
C1568      H1571   1.083       .  S
C1570      C1572   1.401       .  A
C1570      C1576   1.407       .  A
C1572      C1573   1.404       .  A
C1572      H1577   1.084       .  S
C1573      C1574   1.423       .  A
C1573     Br1581   1.922       .  S
C1574      C1575   1.413       .  A
C1575      C1576   1.405       .  A
C1575      H1578   1.082       .  S
C1576     Br1582   1.917       .  S
C1583      C1584   1.410       .  A
C1583      C1588   1.408       .  A
C1584      C1585   1.399       .  A
C1584     Br1600   1.917       .  S
C1585      C1586   1.404       .  A
C1585      H1589   1.077       .  S
C1586      C1590   1.485       .  S
C1586      C1587   1.407       .  A
C1587      C1588   1.404       .  A
C1587     Br1599   1.917       .  S
C1588      H1591   1.082       .  S
C1590      C1592   1.403       .  A
C1590      C1596   1.404       .  A
C1592      C1593   1.405       .  A
C1592      H1597   1.083       .  S
C1593      C1594   1.420       .  A
C1593     Br1601   1.921       .  S
C1594      C1595   1.412       .  A
C1595      C1596   1.399       .  A
C1595      H1598   1.083       .  S
C1596     Br1602   1.918       .  S
C1603      C1604   1.420       .  A
C1603      C1608   1.410       .  A
C1604      C1605   1.406       .  A
C1604     Br1620   1.922       .  S
C1605      C1606   1.403       .  A
C1605      H1609   1.080       .  S
C1606      C1610   1.492       .  S
C1606      C1607   1.409       .  A
C1607      C1608   1.402       .  A
C1607     Br1619   1.920       .  S
C1608      H1611   1.082       .  S
C1610      C1612   1.405       .  A
C1610      C1616   1.413       .  A
C1612      C1613   1.405       .  A
C1612      H1617   1.084       .  S
C1613      C1614   1.410       .  A
C1613     Br1621   1.917       .  S
C1614      C1615   1.404       .  A
C1615      C1616   1.403       .  A
C1615      H1618   1.084       .  S
C1616     Br1622   1.921       .  S
C1623      C1624   1.423       .  A
C1623      C1628   1.411       .  A
C1624      C1625   1.400       .  A
C1624     Br1640   1.923       .  S
C1625      C1626   1.399       .  A
C1625      H1629   1.084       .  S
C1626      C1630   1.488       .  S
C1626      C1627   1.407       .  A
C1627      C1628   1.407       .  A
C1627     Br1639   1.917       .  S
C1628      H1631   1.083       .  S
C1630      C1632   1.404       .  A
C1630      C1636   1.407       .  A
C1632      C1633   1.404       .  A
C1632      H1637   1.081       .  S
C1633      C1634   1.413       .  A
C1633     Br1641   1.919       .  S
C1634      C1635   1.408       .  A
C1635      C1636   1.403       .  A
C1635      H1638   1.083       .  S
C1636     Br1642   1.918       .  S
C1643      C1644   1.419       .  A
C1643      C1648   1.411       .  A
C1644      C1645   1.403       .  A
C1644     Br1660   1.922       .  S
C1645      C1646   1.402       .  A
C1645      H1649   1.084       .  S
C1646      C1650   1.481       .  S
C1646      C1647   1.403       .  A
C1647      C1648   1.396       .  A
C1647     Br1659   1.917       .  S
C1648      H1651   1.083       .  S
C1650      C1652   1.404       .  A
C1650      C1656   1.406       .  A
C1652      C1653   1.400       .  A
C1652      H1657   1.084       .  S
C1653      C1654   1.409       .  A
C1653     Br1661   1.918       .  S
C1654      C1655   1.406       .  A
C1655      C1656   1.401       .  A
C1655      H1658   1.084       .  S
C1656     Br1662   1.917       .  S
C1663      C1664   1.423       .  A
C1663      C1668   1.411       .  A
C1664      C1665   1.409       .  A
C1664     Br1680   1.921       .  S
C1665      C1666   1.406       .  A
C1665      H1669   1.083       .  S
C1666      C1670   1.502       .  S
C1666      C1667   1.412       .  A
C1667      C1668   1.397       .  A
C1667     Br1679   1.925       .  S
C1668      H1671   1.081       .  S
C1670      C1672   1.399       .  A
C1670      C1676   1.416       .  A
C1672      C1673   1.392       .  A
C1672      H1677   1.084       .  S
C1673      C1674   1.420       .  A
C1673     Br1681   1.917       .  S
C1674      C1675   1.410       .  A
C1675      C1676   1.413       .  A
C1675      H1678   1.083       .  S
C1676     Br1682   1.917       .  S
C1683      C1684   1.410       .  A
C1683      C1688   1.405       .  A
C1684      C1685   1.404       .  A
C1684     Br1700   1.918       .  S
C1685      C1686   1.405       .  A
C1685      H1689   1.083       .  S
C1686      C1690   1.493       .  S
C1686      C1687   1.411       .  A
C1687      C1688   1.407       .  A
C1687     Br1699   1.917       .  S
C1688      H1691   1.083       .  S
C1690      C1692   1.405       .  A
C1690      C1696   1.410       .  A
C1692      C1693   1.406       .  A
C1692      H1697   1.084       .  S
C1693      C1694   1.414       .  A
C1693     Br1701   1.920       .  S
C1694      C1695   1.407       .  A
C1695      C1696   1.404       .  A
C1695      H1698   1.083       .  S
C1696     Br1702   1.919       .  S
C1703      C1704   1.410       .  A
C1703      C1708   1.405       .  A
C1704      C1705   1.403       .  A
C1704     Br1720   1.919       .  S
C1705      C1706   1.405       .  A
C1705      H1709   1.084       .  S
C1706      C1710   1.487       .  S
C1706      C1707   1.409       .  A
C1707      C1708   1.403       .  A
C1707     Br1719   1.918       .  S
C1708      H1711   1.084       .  S
C1710      C1712   1.401       .  A
C1710      C1716   1.410       .  A
C1712      C1713   1.400       .  A
C1712      H1717   1.084       .  S
C1713      C1714   1.411       .  A
C1713     Br1721   1.914       .  S
C1714      C1715   1.406       .  A
C1715      C1716   1.405       .  A
C1715      H1718   1.084       .  S
C1716     Br1722   1.918       .  S
C1723      C1724   1.411       .  A
C1723      C1728   1.405       .  A
C1724      C1725   1.402       .  A
C1724     Br1740   1.917       .  S
C1725      C1726   1.403       .  A
C1725      H1729   1.083       .  S
C1726      C1730   1.480       .  S
C1726      C1727   1.406       .  A
C1727      C1728   1.401       .  A
C1727     Br1739   1.917       .  S
C1728      H1731   1.083       .  S
C1730      C1732   1.403       .  A
C1730      C1736   1.407       .  A
C1732      C1733   1.401       .  A
C1732      H1737   1.084       .  S
C1733      C1734   1.407       .  A
C1733     Br1741   1.914       .  S
C1734      C1735   1.405       .  A
C1735      C1736   1.400       .  A
C1735      H1738   1.084       .  S
C1736     Br1742   1.918       .  S
C1743      C1744   1.407       .  A
C1743      C1748   1.401       .  A
C1744      C1745   1.409       .  A
C1744     Br1760   1.913       .  S
C1745      C1746   1.411       .  A
C1745      H1749   1.083       .  S
C1746      C1750   1.496       .  S
C1746      C1747   1.414       .  A
C1747      C1748   1.392       .  A
C1747     Br1759   1.925       .  S
C1748      H1751   1.084       .  S
C1750      C1752   1.403       .  A
C1750      C1756   1.414       .  A
C1752      C1753   1.396       .  A
C1752      H1757   1.083       .  S
C1753      C1754   1.417       .  A
C1753     Br1761   1.925       .  S
C1754      C1755   1.408       .  A
C1755      C1756   1.405       .  A
C1755      H1758   1.083       .  S
C1756     Br1762   1.920       .  S
C1763      C1764   1.410       .  A
C1763      C1768   1.406       .  A
C1764      C1765   1.403       .  A
C1764     Br1780   1.918       .  S
C1765      C1766   1.406       .  A
C1765      H1769   1.084       .  S
C1766      C1770   1.492       .  S
C1766      C1767   1.411       .  A
C1767      C1768   1.405       .  A
C1767     Br1779   1.918       .  S
C1768      H1771   1.084       .  S
C1770      C1772   1.403       .  A
C1770      C1776   1.409       .  A
C1772      C1773   1.403       .  A
C1772      H1777   1.084       .  S
C1773      C1774   1.416       .  A
C1773     Br1781   1.916       .  S
C1774      C1775   1.408       .  A
C1775      C1776   1.404       .  A
C1775      H1778   1.082       .  S
C1776     Br1782   1.916       .  S
C1783      C1784   1.410       .  A
C1783      C1788   1.402       .  A
C1784      C1785   1.403       .  A
C1784     Br1800   1.918       .  S
C1785      C1786   1.403       .  A
C1785      H1789   1.082       .  S
C1786      C1790   1.486       .  S
C1786      C1787   1.411       .  A
C1787      C1788   1.403       .  A
C1787     Br1799   1.918   1_545  S
C1788      H1791   1.082       .  S
C1790      C1792   1.403       .  A
C1790      C1796   1.410       .  A
C1792      C1793   1.404       .  A
C1792      H1797   1.084       .  S
C1793      C1794   1.410       .  A
C1793     Br1801   1.918   1_545  S
C1794      C1795   1.402       .  A
C1795      C1796   1.403       .  A
C1795      H1798   1.084       .  S
C1796     Br1802   1.918       .  S
C1803      C1804   1.410       .  A
C1803      C1808   1.408       .  A
C1804      C1805   1.404       .  A
C1804     Br1820   1.918       .  S
C1805      C1806   1.406       .  A
C1805      H1809   1.082       .  S
C1806      C1810   1.490       .  S
C1806      C1807   1.407       .  A
C1807      C1808   1.404       .  A
C1807     Br1819   1.917       .  S
C1808      H1811   1.083       .  S
C1810      C1812   1.403       .  A
C1810      C1816   1.409       .  A
C1812      C1813   1.402       .  A
C1812      H1817   1.083       .  S
C1813      C1814   1.409       .  A
C1813     Br1821   1.916       .  S
C1814      C1815   1.409       .  A
C1815      C1816   1.407       .  A
C1815      H1818   1.083       .  S
C1816     Br1822   1.917       .  S
C1823      C1824   1.413       .  A
C1823      C1828   1.410       .  A
C1824      C1825   1.404       .  A
C1824     Br1840   1.920       .  S
C1825      C1826   1.405       .  A
C1825      H1829   1.080       .  S
C1826      C1830   1.493       .  S
C1826      C1827   1.407       .  A
C1827      C1828   1.404       .  A
C1827     Br1839   1.917       .  S
C1828      H1831   1.083       .  S
C1830      C1832   1.403       .  A
C1830      C1836   1.407       .  A
C1832      C1833   1.405       .  A
C1832      H1837   1.083       .  S
C1833      C1834   1.420       .  A
C1833     Br1841   1.922       .  S
C1834      C1835   1.412       .  A
C1835      C1836   1.405       .  A
C1835      H1838   1.083       .  S
C1836     Br1842   1.917       .  S
C1843      C1844   1.411       .  A
C1843      C1848   1.401       .  A
C1844      C1845   1.405       .  A
C1844     Br1860   1.918       .  S
C1845      C1846   1.404       .  A
C1845      H1849   1.084       .  S
C1846      C1850   1.485       .  S
C1846      C1847   1.412       .  A
C1847      C1848   1.398       .  A
C1847     Br1859   1.921       .  S
C1848      H1851   1.084       .  S
C1850      C1852   1.407       .  A
C1850      C1856   1.406       .  A
C1852      C1853   1.409       .  A
C1852      H1857   1.083       .  S
C1853      C1854   1.413       .  A
C1853     Br1861   1.918       .  S
C1854      C1855   1.408       .  A
C1855      C1856   1.395       .  A
C1855      H1858   1.083       .  S
C1856     Br1862   1.922       .  S
C1863      C1864   1.412       .  A
C1863      C1868   1.406       .  A
C1864      C1865   1.402       .  A
C1864     Br1880   1.920       .  S
C1865      C1866   1.406       .  A
C1865      H1869   1.083       .  S
C1866      C1870   1.493       .  S
C1866      C1867   1.412       .  A
C1867      C1868   1.402       .  A
C1867     Br1879   1.919       .  S
C1868      H1871   1.083       .  S
C1870      C1872   1.404       .  A
C1870      C1876   1.412       .  A
C1872      C1873   1.399       .  A
C1872      H1877   1.082       .  S
C1873      C1874   1.414       .  A
C1873     Br1881   1.920       .  S
C1874      C1875   1.406       .  A
C1875      C1876   1.406       .  A
C1875      H1878   1.078   1_545  S
C1876     Br1882   1.918   1_545  S
C1883      C1884   1.417       .  A
C1883      C1888   1.406       .  A
C1884      C1885   1.398       .  A
C1884     Br1900   1.925       .  S
C1885      C1886   1.404       .  A
C1885      H1889   1.083       .  S
C1886      C1890   1.503       .  S
C1886      C1887   1.418       .  A
C1887      C1888   1.406       .  A
C1887     Br1899   1.921       .  S
C1888      H1891   1.083       .  S
C1890      C1892   1.409       .  A
C1890      C1896   1.416       .  A
C1892      C1893   1.407       .  A
C1892      H1897   1.082       .  S
C1893      C1894   1.408       .  A
C1893     Br1901   1.910       .  S
C1894      C1895   1.404       .  A
C1895      C1896   1.399       .  A
C1895      H1898   1.079       .  S
C1896     Br1902   1.925       .  S
